LAMMPS (29 Oct 2020)
units           lj
atom_style      full
atom_modify     map array first cubes
dimension       3
boundary        p p f

variable        sigma           equal 1.0
variable        epsilon         equal 1.0

region 		box block 0 100 0 100 0 133

read_data       data.rigid
Reading data file ...
  orthogonal box = (0.0000000 0.0000000 0.0000000) to (14.285700 14.285700 13.000000)
  reading atoms ...
  1143 atoms
Finding 1-2 1-3 1-4 neighbors ...
     0 = max # of 1-2 neighbors
     0 = max # of 1-3 neighbors
     0 = max # of 1-4 neighbors
     1 = max # of special neighbors

replicate       7 7 10			# 490 cubes
Replicating atoms ...
  orthogonal box = (0.0000000 0.0000000 0.0000000) to (99.999900 99.999900 130.00000)
  560070 atoms
Finding 1-2 1-3 1-4 neighbors ...
     0 = max # of 1-2 neighbors
     0 = max # of 1-3 neighbors
     0 = max # of 1-4 neighbors
     1 = max # of special neighbors
  replicate CPU = 0.036 seconds

group           cubes type 2 3
560070 atoms in group cubes

## relax the structure

pair_style      soft 1.12
pair_coeff      1 1 0.0 0.0
pair_coeff      2 2 0.0
pair_coeff      3 3 0.0
pair_coeff      1 3 0.0 0.0
pair_coeff      2 3 0.0
pair_coeff      1 2 0.0 0.0

variable        prefactor equal ramp(0,60)
fix             soft all adapt 1 pair soft a * * v_prefactor

neighbor        0.3 bin
neigh_modify    delay 0 every 1 check yes

#fix             1     cubes rigid molecule

dump 		1 all movie 100 movie.avi type type

compute         tbig all temp
thermo_modify   temp tbig

thermo          100
run             1000
  update every 1 steps, delay 0 steps, check yes
Setting up Verlet run ...
  Unit style    : lj
  Current step  : 0
  Time step     : 0.005
Step Temp E_pair E_mol TotEng Press
0            0            0            0            0            0
Averages over the last 6 of 11 rows, steps 500 to 1000:
Temp E_pair E_mol TotEng Press
0 6.80028 0 6.80028 16.1223
Loop time of 2.72093 on 64 procs for 1000 steps with 560070 atoms

unfix 		soft

reset_timestep 	0

# Jetzt die eigentliche verteilung

pair_style	lj/cut/opt 2.5
pair_modify	shift yes

pair_coeff	1 1 0.0 0.0

pair_coeff	2 2 1.0 1.0

pair_coeff	1 2 0.0 0.0

pair_coeff	1 3 0.0 0.0

pair_coeff	2 3 0.0 0.0

pair_coeff	3 3 0.0 0.0

comm_modify	cutoff 6.93

fix 		1 cubes rigid/small molecule
  490 rigid bodies with 560070 atoms
  6.9282032 = max distance from body owner to body atom

####################### WALLS ###########################

variable       epsilonWall equal 2*1

variable       cutoffTop   equal   0.7147*1

variable       cutoffLow   equal   3*1

fix            topWall all wall/lj93 zhi EDGE                2 1 0.7147 units box

fix            lowWall all wall/lj93 zlo EDGE                2 1 3 units box

velocity	all create 50.0 22354 loop geom

############### Diagnostics and computes ###################
compute        com cubes          rigid/local   1 mol x y z
compute        quat cubes         rigid/local   1 mol quatw quati quatj quatk

thermo          1000
thermo_style    custom step temp epair evdwl etotal press pe ke vol

#dump            1 all custom 100000 dump.lammpstrj id mol type x y z
dump            2 all image 10000 image.*.png type type

dump_modify     2 pad 8

dump            image cubes image 10000 image_cubes.*.png type type

dump_modify     image pad 8

dump            3 all movie 5000 movie.avi type type
dump           com cubes local 1000 dump.*.xyz c_com[*]
dump           quat cubes      local 1000 dump.*.quat c_quat[*]

restart         250000 restart.dat
timestep        0.005
timer           full
New timer settings: style=full  mode=nosync  timeout=off

run 		1000000
  update every 1 steps, delay 0 steps, check yes
Setting up Verlet run ...
  Unit style    : lj
  Current step  : 0
  Time step     : 0.005
Step Temp E_pair E_vdwl TotEng Press PotEng KinEng Volume
0    49.605157  -0.36619638  -0.36619638  -0.23613198     2.625404  -0.36619638   0.13006441    1299997.4
Averages over the last 501 of 1001 rows, steps 500000 to 1000000:
Temp E_pair E_vdwl TotEng Press PotEng KinEng Volume
54.0654 -0.379688 -0.379688 -0.237929 0.171816 -0.379688 0.141759 1.3e+06
Loop time of 14657 on 64 procs for 1000000 steps with 560070 atoms

write_data      data.cubes
System init for write_data ...
