LAMMPS (29 Oct 2020)
# Simple rigid body system
# needed variables: startTemp, temp

units		lj
atom_style	full
dimension 	3
boundary	p p f
pair_style	lj/smooth/linear 1.5

variable 	sigma		equal 1.0
variable 	epsilon 	equal 1.0

region		box block 0 40 0 40 0 80
create_box 	3 box
Created orthogonal box = (0.0000000 0.0000000 0.0000000) to (40.000000 40.000000 80.000000)

lattice 	sc 0.66
Lattice spacing in x,y,z = 1.1485556 1.1485556 1.1485556
region 		fluid block EDGE EDGE EDGE EDGE 1 40
create_atoms 	1 region fluid
Created 49000 atoms

lattice 	sc 0.045
Lattice spacing in x,y,z = 2.8114422 2.8114422 2.8114422
region 		gas block EDGE EDGE EDGE EDGE 40 79
create_atoms 	1 region gas
Created 0 atoms

mass		1 1.0
mass		2 1.0
mass		3 1.0

group		solvent type 1
49000 atoms in group solvent

velocity 	solvent create 0.5 563435 loop geom

neighbor 	0.4 bin

pair_coeff	1 1 1.0 1.0
pair_coeff	2 2 0.0 0.0
pair_coeff	3 3 0.0 0.0
pair_coeff	2 3 0.0 0.0
pair_coeff	1 2*3 0.0 0.0

pair_modify 	shift yes

balance 	1.05 shift z 10 1.05
Balancing ...
  update every 1 steps, delay 10 steps, check yes
 rebalancing time: 0.030 seconds
  iteration count = 3
  initial/final maximal load/proc = 20825.000 13475.000
  initial/final imbalance factor  = 1.7000000 1.1000000
  x cuts: 0.0000000 1.0000000
  y cuts: 0.0000000 1.0000000
  z cuts: 0.0000000 0.15625 0.28125 0.4375 1.0000000

####################### WALLS ###########################

variable       epsilonWall equal 2*1

variable       cutoffTop   equal   0.858*1

variable       cutoffLow   equal   3*1

fix            topWall all wall/lj93 zhi EDGE                2 1 0.858 units box

fix            lowWall all wall/lj93 zlo EDGE                2 1 3 units box

###################### COMPUTES ##########################

compute        bin1 solvent chunk/atom bin/1d z upper 1.0

######################	FIXES ############################

fix 		peclet solvent ave/chunk 1000 1 1000 bin1 density/number norm 		 sample ave one file density.profile

fix 		 temp solvent ave/chunk 1000 1 1000 bin1 temp norm sample ave one file temp.profile

fix 		2 solvent nve/limit 0.1

run 		100000
Step Temp E_pair E_mol TotEng Press
0          0.5  -0.57754581            0   0.17243888   0.60677542
Loop time of 455.044 on 4 procs for 100000 steps with 49000 atoms

unfix 		2

## Thermostat

region		regthermo block EDGE EDGE EDGE EDGE 0 40

group 		thermo dynamic solvent region regthermo every 1000
dynamic group thermo defined

fix 		3 thermo langevin 0.5 .5 10 156453

#### Load balancing

fix 		bal all balance 1000 1.05 shift z 10 1.05

############### Diagnostics and computes ###################
dump		1 all custom 100000 dump.lammpstrj id mol type x y z
dump 		2 all image 10000 image.*.png type type zoom 2.0
dump 		3 all movie 1000 movie.avi type type zoom 2.0

################ RUN  ##########################
thermo 		1000
thermo_style 	custom step temp epair evdwl etotal press pe ke vol

restart 	500000 restart.dat
timestep 	0.005
timer 		full
New timer settings: style=full  mode=nosync  timeout=off

run		1000000
Step Temp E_pair E_vdwl TotEng Press PotEng KinEng Volume
100000    0.3369227   -0.3207188   -0.3207188   0.18465493   0.21058545   -0.3207188   0.50537374       128000
Averages over the last 501 of 1001 rows, steps 600000 to 1100000:
Temp E_pair E_vdwl TotEng Press PotEng KinEng Volume
0.500275 -0.268077 -0.268077 0.48232 0.368139 -0.268077 0.750397 128000
Loop time of 4435.64 on 4 procs for 1000000 steps with 49000 atoms

write_restart   restart_write.dat
System init for write_restart ...
write_data	data.write
System init for write_data ...
