LAMMPS (3 Mar 2020)

units           lj
atom_style      full
atom_modify     map array first cubes
dimension       3
boundary        p p f

variable        sigma           equal 1.0
variable        epsilon         equal 1.0

read_data       data.rigid
Reading data file ...
  orthogonal box = (0 0 0) to (20 20 20)
  reading atoms ...
  1143 atoms
Finding 1-2 1-3 1-4 neighbors ...
replicate       4 4 4
Replicating atoms ...
  orthogonal box = (0 0 0) to (80 80 80)
  73152 atoms
Finding 1-2 1-3 1-4 neighbors ...
  replicate CPU = 0.046122 secs
group           cubes type 2 3
73152 atoms in group cubes

velocity        cubes create 10.0 45345 loop geom

pair_style      soft 1.12
pair_coeff      1 1 0.0 0.0
pair_coeff      2 2 0.0
pair_coeff      3 3 0.0
pair_coeff      1 3 0.0 0.0
pair_coeff      2 3 0.0
pair_coeff      1 2 0.0 0.0

variable        prefactor equal ramp(0,60)
fix             soft all adapt 1 pair soft a * * v_prefactor

neighbor        0.3 bin
neigh_modify    delay 0 every 1 check yes

#fix             1     cubes rigid molecule

dump 		1 all movie 100 movie.avi type type

compute         tbig all temp
thermo_modify   temp tbig

thermo          100
run             1000
  update every 1 steps, delay 0 steps, check yes
Setting up Verlet run ...
  Unit style    : lj
  Current step  : 0
  Time step     : 0.005
Step Temp E_pair E_mol TotEng Press
0           10            0            0    14.999795    1.4287305
Averages over the last 6 of 11 rows, steps 500 to 1000:
Temp E_pair E_mol TotEng Press
10 6.80028 0 21.8001 6.77539
Loop time of 0.588122 on 64 procs for 1000 steps with 73152 atoms

unfix 		soft

reset_timestep 	0

pair_style	lj/cut/opt 4.4
pair_modify	shift yes

pair_coeff	1 1 0.0 0.0

pair_coeff	2 2 1.0 1.0

pair_coeff	1 2 0.0 0.0

pair_coeff	1 3 0.0 0.0

pair_coeff	2 3 0.0 0.0

pair_coeff	3 3 0.0 0.0

comm_modify	cutoff 6.93

fix 		1 cubes rigid/small molecule
64 rigid bodies with 73152 atoms
  6.9282 = max distance from body owner to body atom

####################### WALLS ###########################

variable       epsilonWall equal 2*1

variable       cutoffTop   equal   0.7147*1

variable       cutoffLow   equal   3*1

region         lowWall block EDGE EDGE EDGE EDGE EDGE 2

delete_atoms   region lowWall
Deleted 0 atoms, new total = 73152

fix            topWall all wall/lj93 zhi EDGE                2 1 0.7147 units box

fix            lowWall all wall/lj93 zlo EDGE                2 1 3 units box

#velocity	all create 10.0 132145 loop geom

dump 		2 all movie 100 movie_cubes.avi type type

run 100000
  update every 1 steps, delay 0 steps, check yes
Setting up Verlet run ...
  Unit style    : lj
  Current step  : 0
  Time step     : 0.005
Step Temp E_pair E_mol TotEng Press
0    10.724644  -0.44149837            0  -0.41356961   0.27153188
Averages over the last 501 of 1001 rows, steps 50000 to 100000:
Temp E_pair E_mol TotEng Press
18.3168 -0.459303 0 -0.411603 0.0036463
Loop time of 798.121 on 64 procs for 100000 steps with 73152 atoms

write_data      data.cubes
System init for write_data ...
