LAMMPS (3 Mar 2020)
####### Lammps input script for evaporating lj fluid ########

units 	       lj
dimension      3
newton 	       on
boundary       p p f
atom_style     body	rounded/polyhedron 1 20

###### Variables ######
#######################

variable        cut_inner  equal        0.7

variable        k_n        equal        100

variable        k_na       equal        -20

variable        k_na2      equal        1

variable        c_n        equal        10.0

variable        c_t        equal        10.0

variable        mu         equal        10.0

variable        A_ua       equal        1.0

variable       	epsilon    equal 	1

variable       	sigma      equal 	1

variable       	cutoff     equal 	3.5

variable        replic     equal        2

##### initialization ######
###########################

read_data   	data.spheres_all 	group	lj	extra/atom/types 1
  orthogonal box = (0 0 0) to (40 40 40)
  reading atoms ...
  8000 atoms
  8000 bodies

region		cubeSpace	block 0 40 10 30 10 30

delete_atoms 	region 		cubeSpace  compress yes
Deleted 2000 atoms, new total = 6000

read_data   	data.cubes 	group	cubes	add	append
  orthogonal box = (0 0 0) to (40 40 40)
  reading atoms ...
  1 atoms
  1 bodies

replicate 	2 2 2
  orthogonal box = (0 0 0) to (80 80 80)
  48008 atoms
  replicate CPU = 0.0636327 secs

read_data	data.vac 	add append
  orthogonal box = (0 0 0) to (80 80 160)

##### potential parameters ######
#################################

pair_style      hybrid                 body/rounded/polyhedron 10 10 10 1 0.7                 lj/cut 3.5

pair_coeff      * * body/rounded/polyhedron 100 -20

pair_coeff      1 1 lj/cut 1 1

pair_modify     pair lj/cut shift yes

##### simulation settings #########
###################################

comm_modify    vel	yes

neighbor       0.5	bin

neigh_modify   every 1 delay 0 check yes

timestep       0.005

######## fixes ###########
##########################

fix	       1 all nvt/body temp 0.5 0.75 1.0

variable       epsilonWall equal 2*1

variable       cutoffTop   equal   0.7147*1

variable       cutoffLow   equal   3*1

fix            topWall all wall/lj93 zhi EDGE                2 1 0.7147 units box

fix            lowWall all wall/lj93 zlo EDGE                2 1 3 units box

######## computes ########

######## dumps ###########
##########################

dump         image all image 100 image.*.png type type              zoom 1.0 body type 0 0              view 90 0 size 1920 1080 box yes 0.01

#dump         movie all movie 5000 movie.avi type type              zoom 1.0 adiam 10.0 body type 0 0 view 60 15              axes no 1.0 0.01 box yes 0.01 size 1920 1080

dump 	     pos  cubes	 xyz  100 dump.xyz

####### final setup #######
###########################

velocity      	    all create 0.1 78994

thermo_style  	    custom step temp etotal pe ke press vol density

thermo 	      	    100

run_style	    verlet

run 		    10000
  update every 1 steps, delay 0 steps, check yes
Step Temp TotEng PotEng KinEng Press Volume Density
0          0.1 -0.054104627   -0.2041015   0.14999688 -0.016646639      1024000    0.0546875
Averages over the last 51 of 101 rows, steps 5000 to 10000:
Temp TotEng PotEng KinEng Press Volume Density
1.37488 1.45361 -0.608669 2.06228 0.0517811 1.024e+06 0.0546875
Loop time of 830.107 on 1 procs for 10000 steps with 48008 atoms
