LAMMPS (3 Mar 2020)
#Read the equilibrated lj fluid and add nanocubes

units           lj
atom_style      full
atom_modify     map array first cubes
dimension       3
boundary        p p f
pair_style      lj/cut/opt 4.4

variable        sigma           equal 1.0
variable        epsilon         equal 1.0
read_data	data.restart
Reading data file ...
  orthogonal box = (0 0 0) to (80 80 160)
  reading atoms ...
  489200 atoms
  reading velocities ...
  489200 velocities
Finding 1-2 1-3 1-4 neighbors ...

group		solvent type 1
489200 atoms in group solvent

read_data	data.cubes group cubes add append
Reading data file ...
  orthogonal box = (0 0 0) to (80 80 160)
  reading atoms ...
  73152 atoms
  reading velocities ...
  73152 velocities
Finding 1-2 1-3 1-4 neighbors ...

neighbor      0.4 bin
neigh_modify  exclude molecule/intra cubes

pair_modify   shift yes
pair_coeff    1 1 1.0 1.0 4.4 #solvent
pair_coeff    2 2 0.6 1.0 2.2 #np
pair_coeff    3 3 0.0 0.0 0.0 #dummy
pair_coeff    2 3 0.0 0.0 0.0 #np dummy
pair_coeff    1 2 0.8 1.0 4.4 #np solvent
pair_coeff    1 3 0.0 0.0 0.0 #dummy solvent

delete_atoms  overlap 1.0 solvent cubes
System init for delete_atoms ...
  update every 1 steps, delay 10 steps, check yes
Deleted 40261 atoms, new total = 522091

comm_modify     cutoff 6.95

reset_timestep 	0
balance 	1.05 shift z 10 1.05
Balancing ...
  update every 1 steps, delay 10 steps, check yes
  rebalancing time: 0.0160505 seconds
  iteration count = 5
  initial/final max load/proc = 12419 8813
  initial/final imbalance factor = 1.52237 1.08033
  x cuts: 0 0.5 1
  y cuts: 0 0.25 0.5 0.75 1
  z cuts: 0 0.0820312 0.167969 0.253906 0.335938 0.429688 0.507812 0.605469 1

####################### WALLS ###########################

variable       epsilonWall equal 2*1

variable       cutoffTop   equal   0.7147*1

variable       cutoffLow   equal   3*1

region         lowWall block EDGE EDGE EDGE EDGE EDGE 2

delete_atoms   region lowWall
Deleted 6661 atoms, new total = 515430

fix            topWall all wall/lj93 zhi EDGE 	       2 1 0.7147 units box

fix            lowWall all wall/lj93 zlo EDGE                2 1 3 units box

######################  FIXES ############################

fix             1 cubes rigid/nvt/small molecule temp 1.0 1.0 0.25
64 rigid bodies with 73152 atoms
  6.94564 = max distance from body owner to body atom

fix             2 solvent nve

## Thermostat

region          regthermo block EDGE EDGE EDGE EDGE 0 20

group           thermo dynamic solvent region regthermo every 1000
dynamic group thermo defined

fix             3 thermo langevin 1.0 1.0 0.1 156453

#### Load balancing

fix             bal all balance 1000 1.05 shift z 10 1.05

############### Diagnostics and computes ###################
#compute        com cube          rigid/local   1 mol x y z
#compute        quat cube         rigid/local   1 mol quatw quati quatj quatk

thermo          1000
thermo_style    custom step temp epair evdwl etotal press pe ke vol

dump            1 all custom 100000 dump.lammpstrj id mol type x y z
dump            2 all image 10000 image.*.png type type

dump_modify     2 pad 8

dump		image cubes image 10000 image.*.png type type

dump_modify	2 pad 8

dump            3 all movie 5000 movie.avi type type
#dump           com cube local 1000 dump.*.xyz c_com[*]
#dump           quat cube      local 1000 dump.*.quat c_quat[*]

restart         500000 restart.dat
timestep        0.0025
timer           full
New timer settings: style=full  mode=nosync  timeout=off

run            1000000
Setting up Verlet run ...
  Unit style    : lj
  Current step  : 0
  Time step     : 0.0025
Step Temp E_pair E_vdwl TotEng Press PotEng KinEng Volume
0   0.98761916   -3.9573298   -3.9573298   -2.6857866 -0.012303543   -3.9573298    1.2715431      1024000
Averages over the last 501 of 1001 rows, steps 500000 to 1000000:
Temp E_pair E_vdwl TotEng Press PotEng KinEng Volume
0.993422 -3.99558 -3.99558 -2.71656 0.069958 -3.99558 1.27901 1.024e+06
Loop time of 52758.4 on 64 procs for 1000000 steps with 515430 atoms
