LAMMPS (29 Oct 2020)
units           lj
atom_style      full
atom_modify     map array first cubes
dimension       3
boundary        p p f

variable        sigma           equal 1.0
variable        epsilon         equal 1.0

region 		box block 0 80 0 80 0 106

read_data       data.rigid
Reading data file ...
  orthogonal box = (0.0000000 0.0000000 0.0000000) to (20.000000 20.000000 26.500000)
  reading atoms ...
  1331 atoms
Finding 1-2 1-3 1-4 neighbors ...
     0 = max # of 1-2 neighbors
     0 = max # of 1-3 neighbors
     0 = max # of 1-4 neighbors
     1 = max # of special neighbors

replicate       4 4 4	#64 cubes
Replicating atoms ...
  orthogonal box = (0.0000000 0.0000000 0.0000000) to (80.000000 80.000000 106.00000)
  85184 atoms
Finding 1-2 1-3 1-4 neighbors ...
     0 = max # of 1-2 neighbors
     0 = max # of 1-3 neighbors
     0 = max # of 1-4 neighbors
     1 = max # of special neighbors
  replicate CPU = 0.496 seconds

group           cubes type 2 3
85184 atoms in group cubes

## relax the structure

pair_style      soft 1.12
pair_coeff      1 1 0.0 0.0
pair_coeff      2 2 0.0
pair_coeff      3 3 0.0
pair_coeff      1 3 0.0 0.0
pair_coeff      2 3 0.0
pair_coeff      1 2 0.0 0.0

variable        prefactor equal ramp(0,60)
fix             soft all adapt 1 pair soft a * * v_prefactor

neighbor        0.3 bin
neigh_modify    delay 0 every 1 check yes

#fix             1     cubes rigid molecule

dump 		1 all movie 100 movie.avi type type

compute         tbig all temp
thermo_modify   temp tbig

thermo          100
run             1000
  update every 1 steps, delay 0 steps, check yes
Setting up Verlet run ...
  Unit style    : lj
  Current step  : 0
  Time step     : 0.005
Step Temp E_pair E_mol TotEng Press
0            0            0            0            0            0
Averages over the last 6 of 11 rows, steps 500 to 1000:
Temp E_pair E_mol TotEng Press
0 6.88705 0 6.88705 4.75888
Loop time of 10.5414 on 16 procs for 1000 steps with 85184 atoms

unfix 		soft

reset_timestep 	0

# Jetzt die eigentliche verteilung

pair_style	lj/cut/opt 1.12
pair_modify	shift yes

pair_coeff	1 1 0.0 0.0

pair_coeff	2 2 1.0 1.0

pair_coeff	1 2 0.0 0.0

pair_coeff	1 3 0.0 0.0

pair_coeff	2 3 0.0 0.0

pair_coeff	3 3 0.0 0.0

comm_modify	cutoff 9

fix 		1 cubes rigid/small molecule
  64 rigid bodies with 85184 atoms
  8.6602540 = max distance from body owner to body atom

####################### WALLS ###########################

variable       epsilonWall equal 2*1

variable       cutoffTop   equal   0.7147*1

variable       cutoffLow   equal   3*1

fix            topWall all wall/lj93 zhi EDGE                2 1 0.7147 units box

fix            lowWall all wall/lj93 zlo EDGE                2 1 0.7147 units box

velocity	all create 2 11922 loop geom

############### Diagnostics and computes ###################
compute        com cubes          rigid/local   1 mol x y z
compute        quat cubes         rigid/local   1 mol quatw quati quatj quatk

thermo          1000
thermo_style    custom step temp epair evdwl etotal press pe ke vol

#dump            1 all custom 100000 dump.lammpstrj id mol type x y z
dump            2 all image 10000 image.*.png type type

dump_modify     2 pad 8

dump            image cubes image 10000 image_cubes.*.png type type

dump_modify     image pad 8

dump            3 all movie 5000 movie.avi type type
dump           com cubes local 1000 dump.*.xyz c_com[*]
dump           quat cubes      local 1000 dump.*.quat c_quat[*]

restart         250000 restart.dat
timestep        0.005
timer           full
New timer settings: style=full  mode=nosync  timeout=off

run 		500000
  update every 1 steps, delay 0 steps, check yes
Setting up Verlet run ...
  Unit style    : lj
  Current step  : 0
  Time step     : 0.005
Step Temp E_pair E_vdwl TotEng Press PotEng KinEng Volume
0    2.3779226   0.90141919   0.90141919   0.90673702  -0.12923144   0.90141919 0.0053178326       678400
Averages over the last 251 of 501 rows, steps 250000 to 500000:
Temp E_pair E_vdwl TotEng Press PotEng KinEng Volume
2.37056 0.901435 0.901435 0.906737 0.000463616 0.901435 0.00530136 678400
Loop time of 49110.1 on 16 procs for 500000 steps with 85184 atoms

write_data      data.cubes
System init for write_data ...
