LAMMPS (3 Mar 2020)
units           lj
atom_style      full
atom_modify     map array first cubes
dimension       3
boundary        p p f

variable        sigma           equal 1.0
variable        epsilon         equal 1.0

read_data       data.rigid
  orthogonal box = (0 0 0) to (20 20 20)
  reading atoms ...
  1143 atoms
replicate       4 4 4
  orthogonal box = (0 0 0) to (80 80 80)
  73152 atoms
  replicate CPU = 0.00827483 secs
group           cubes type 2 3
73152 atoms in group cubes

velocity        cubes create 1.0 45345 loop geom

pair_style      soft 1.12
pair_coeff      1 1 0.0 0.0
pair_coeff      2 2 0.0
pair_coeff      3 3 0.0
pair_coeff      1 3 0.0 0.0
pair_coeff      2 3 0.0
pair_coeff      1 2 0.0 0.0

variable        prefactor equal ramp(0,60)
fix             soft all adapt 1 pair soft a * * v_prefactor

neighbor        0.3 bin
neigh_modify    delay 0 every 1 check yes

#fix             1     cubes rigid molecule

dump 		1 all movie 100 movie.avi type type

compute         tbig all temp
thermo_modify   temp tbig

thermo          100
run             1000
  update every 1 steps, delay 0 steps, check yes
Step Temp E_pair E_mol TotEng Press
0            1            0            0    1.4999795   0.14287305
Averages over the last 6 of 11 rows, steps 500 to 1000:
Temp E_pair E_mol TotEng Press
1 6.80028 0 8.30026 5.48954
Loop time of 2.05506 on 8 procs for 1000 steps with 73152 atoms
