LAMMPS (29 Oct 2020)
# Simple rigid body system

variable       	r equal 4

units		lj
atom_style	full
dimension 	3
boundary	p p f
pair_style	lj/cut/opt 2.5

variable 	sigma		equal 1.0
variable 	epsilon 	equal 1.0

region		box block 0 160 0 160 0 160
create_box 	3 box
Created orthogonal box = (0.0000000 0.0000000 0.0000000) to (160.00000 160.00000 160.00000)
lattice 	sc 1.0
Lattice spacing in x,y,z = 1.0000000 1.0000000 1.0000000

create_atoms 	1 region box
Created 4096000 atoms

mass		1 1.0
mass		2 1.0
mass		3 1.0

group		solvent type 1
4096000 atoms in group solvent

velocity 	solvent create 1.0 563435 loop geom

read_data	data.vac add append
Reading data file ...
  orthogonal box = (0.0000000 0.0000000 0.0000000) to (160.00000 160.00000 320.00000)
Finding 1-2 1-3 1-4 neighbors ...
     0 = max # of 1-2 neighbors
     0 = max # of 1-3 neighbors
     0 = max # of 1-4 neighbors
     1 = max # of special neighbors

neighbor 	0.4 bin

pair_coeff	1 1 1.0 1.0
pair_coeff	2 2 0.0 0.0
pair_coeff	3 3 0.0 0.0
pair_coeff	2 3 0.0 0.0
pair_coeff	1 2*3 0.0 0.0

pair_modify 	shift yes

balance 	1.05 shift z 10 1.05
Balancing ...
  update every 1 steps, delay 10 steps, check yes
 rebalancing time: 0.041 seconds
  iteration count = 5
  initial/final maximal load/proc = 32000.000 22400.000
  initial/final imbalance factor  = 2.0000000 1.4000000
  x cuts: 0.0000000 0.25 0.5 0.75 1.0000000
  y cuts: 0.0000000 0.25 0.5 0.75 1.0000000
  z cuts: 0.0000000 0.03125 0.064453125 0.09375 0.12890625 0.15429688 0.19335938 0.21875 0.2578125 0.27929688 0.32226562 0.34765625 0.38671875 0.41601562 0.45117188 0.46875 1.0000000

####################### WALLS ###########################

region	       low block  EDGE EDGE EDGE EDGE 0 1

region 	       top block  EDGE EDGE EDGE EDGE 159 160

delete_atoms   region low
Deleted 51200 atoms, new total = 4044800

variable       epsilonWall equal 2*1

variable       cutoffTop   equal   0.7147*1

variable       cutoffLow   equal   3*1

fix            topWall all wall/lj93 zhi EDGE                2 1 0.7147 units box

fix            lowWall all wall/lj93 zlo EDGE                2 1 3 units box

######################	FIXES ############################

fix 		2 solvent nve

## Thermostat

region		regthermo block EDGE EDGE EDGE EDGE 0 20

group 		thermo dynamic solvent region regthermo every 1000
dynamic group thermo defined

fix 		3 thermo langevin 1.0 1.0 10 156453

#### Load balancing

fix 		bal all balance 1000 1.05 shift z 10 1.05

############### Diagnostics and computes ###################
#compute 	com cube	  rigid/local	1 mol x y z
#compute 	quat cube	  rigid/local	1 mol quatw quati quatj quatk

thermo 		1000
thermo_style 	custom step temp epair evdwl etotal press pe ke vol

dump		1 all custom 100000 dump.lammpstrj id mol type x y z
dump 		2 all image 10000 image.*.png type type
dump 		3 all movie 100 movie.avi type type
#dump 		com cube local 1000 dump.*.xyz c_com[*]
#dump		quat cube      local 1000 dump.*.quat c_quat[*]

restart 	100000 restart.dat
timestep 	0.0025
timer 		full
New timer settings: style=full  mode=nosync  timeout=off

run		1000000
Setting up Verlet run ...
  Unit style    : lj
  Current step  : 0
  Time step     : 0.0025
Step Temp E_pair E_vdwl TotEng Press PotEng KinEng Volume
0   0.99995227   -3.3139444   -3.3139444   -1.8140164    8.8028552   -3.3139444     1.499928      8192000
Averages over the last 501 of 1001 rows, steps 500000 to 1000000:
Temp E_pair E_vdwl TotEng Press PotEng KinEng Volume
0.961119 -3.52486 -3.52486 -2.08318 0.066911 -3.52486 1.44168 8.192e+06
Loop time of 22090.8 on 256 procs for 1000000 steps with 4044800 atoms
