LAMMPS (29 Oct 2020)
# Simple rigid body system

units		lj
atom_style	full
dimension 	3
boundary	p p f
pair_style	lj/cut/opt 2.5

variable 	sigma		equal 1.0
variable 	epsilon 	equal 1.0

region		box block 0 120 0 120 0 240
create_box 	3 box
Created orthogonal box = (0.0000000 0.0000000 0.0000000) to (120.00000 120.00000 240.00000)

lattice 	sc 0.66
Lattice spacing in x,y,z = 1.1485556 1.1485556 1.1485556
region		fluid block EDGE 119 EDGE 119 1 160 units box
create_atoms 	1 region fluid
Created 1503424 atoms

lattice 	sc 0.045
Lattice spacing in x,y,z = 2.8114422 2.8114422 2.8114422
region		gas block EDGE EDGE EDGE EDGE 161 238 units box
create_atoms    1 region gas
Created 49923 atoms

group		solvent type 1
1553347 atoms in group solvent

mass		1 1.0
mass		2 1.0
mass		3 1.0

neighbor 	0.4 bin

pair_coeff	1 1 1.0 1.0
pair_coeff	2 2 0.0 0.0
pair_coeff	3 3 0.0 0.0
pair_coeff	2 3 0.0 0.0
pair_coeff	1 2*3 0.0 0.0

pair_modify 	shift yes

delete_atoms	overlap 0.2 solvent solvent
System init for delete_atoms ...
  update every 1 steps, delay 10 steps, check yes
Deleted 0 atoms, new total = 1553347

velocity 	solvent create 1.0 563435 loop geom

balance 	1.05 shift z 10 1.05
Balancing ...
  update every 1 steps, delay 10 steps, check yes
 rebalancing time: 0.056 seconds
  iteration count = 5
  initial/final maximal load/proc = 18954.000 14580.000
  initial/final imbalance factor  = 1.5618609 1.2014315
  x cuts: 0.0000000 0.25 0.5 0.75 1.0000000
  y cuts: 0.0000000 0.25 0.5 0.75 1.0000000
  z cuts: 0.0000000 0.08984375 0.17578125 0.26171875 0.3515625 0.4296875 0.5234375 0.60546875 1.0000000

####################### WALLS ###########################

variable       epsilonWall equal   2*1

variable       cutoffTop   equal   0.7147*1

variable       cutoffLow   equal   3*1

fix            topWall all wall/lj93 zhi EDGE                2 1 0.7147 units box

fix            lowWall all wall/lj93 zlo EDGE                2 1 3 units box

###################### COMPUTES ##########################

compute        bin1 solvent chunk/atom bin/1d z upper 1.0

######################	FIXES ############################

fix 		peclet solvent ave/chunk 10 10 1000 bin1 density/number norm 		 none ave one file density.profile

fix 		 temp solvent ave/chunk 10 10 1000 bin1 temp norm 		 none ave one file temp.profile

fix 		2 solvent nve

## Thermostat

region		regthermo block EDGE EDGE EDGE EDGE 0 20 units box

group 		thermo dynamic solvent region regthermo every 100
dynamic group thermo defined

fix 		3 thermo langevin 1.0 1.0 10 156453

#### Load balancing

fix 		bal all balance 1000 1.05 shift z 10 1.05

############### Diagnostics and computes ###################

thermo 		1000
thermo_style 	custom step temp epair evdwl etotal press pe ke atoms

dump		1 all custom 100000 dump.lammpstrj id mol type x y z
dump 		2 all image 10000 image_side.*.png type type zoom 1.5 view 0 0
dump 		3 all image 10000 image.*.png type type zoom 1.5
dump 		movie all movie 1000 movie.avi type type zoom 1.5

#dump 		com cube local 1000 dump.*.xyz c_com[*]
#dump		quat cube      local 1000 dump.*.quat c_quat[*]

restart 	1000000 restart.dat
timestep 	0.005
timer 		full
New timer settings: style=full  mode=nosync  timeout=off

run		10000000
Step Temp E_pair E_vdwl TotEng Press PotEng KinEng Atoms
0            1   -4.0796088   -4.0796088   -2.5796097   -1.4146999   -4.0796088     1.499999  1553347
Averages over the last 5001 of 10001 rows, steps 5000000 to 10000000:
Temp E_pair E_vdwl TotEng Press PotEng KinEng Atoms
0.995226 -3.3083 -3.3083 -1.81546 0.0599581 -3.3083 1.49284 1.55335e+06
Loop time of 129516 on 128 procs for 10000000 steps with 1553347 atoms

write_data	data.lj
System init for write_data ...
