LAMMPS (3 Mar 2020)
#Read the equilibrated lj fluid with nanocubes and let it evaporate for 10 mio

units           lj
atom_style      full
#atom_modify     map array first cubes
dimension       3
boundary        p p f
pair_style      lj/cut/opt 4.4

variable        sigma           equal 1.0
variable        epsilon         equal 1.0
read_restart	restart.dat.1000000
Reading restart file ...
  restart file = 3 Mar 2020, LAMMPS = 3 Mar 2020
  restoring atom style full from restart
  orthogonal box = (0 0 0) to (80 80 160)
  restoring pair style lj/cut/opt from restart
  515430 atoms
Finding 1-2 1-3 1-4 neighbors ...
  read_restart CPU = 55.1325 secs

group		solvent type 1
442278 atoms in group solvent
group		cubes 	type 2 3
73152 atoms in group cubes

neighbor      0.4 bin
neigh_modify  exclude molecule/intra cubes

pair_modify   shift yes
pair_coeff    1 1 1.0 1.0 4.4 #solvent
pair_coeff    2 2 0.6 1.0 2.2 #np
pair_coeff    3 3 0.0 0.0 0.0 #dummy
pair_coeff    2 3 0.0 0.0 0.0 #np dummy
pair_coeff    1 2 0.8 1.0 4.4 #np solvent
pair_coeff    1 3 0.0 0.0 0.0 #dummy solvent

comm_modify     cutoff 6.95

reset_timestep 	0
balance 	1.05 shift z 10 1.05
Balancing ...
Unused restart file global fix info:
  fix style: rigid/nvt/small, fix ID: 1
  update every 1 steps, delay 10 steps, check yes
  rebalancing time: 0.00714506 seconds
  iteration count = 4
  initial/final max load/proc = 3690 3483
  initial/final imbalance factor = 1.83272 1.72991
  x cuts: 0 0.25 0.5 0.75 1
  y cuts: 0 0.25 0.5 0.75 1
  z cuts: 0 0.0429688 0.0742188 0.117188 0.164062 0.195312 0.246094 0.285156 0.324219 0.359375 0.390625 0.453125 0.496094 0.519531 0.582031 0.632812 1

####################### WALLS ###########################

variable       epsilonWall equal 2*1

variable       cutoffTop   equal   0.7147*1

variable       cutoffLow   equal   3*1

region         lowWall block EDGE EDGE EDGE EDGE EDGE 2

fix            topWall all wall/lj93 zhi EDGE 	       2 1 0.7147 units box

fix            lowWall all wall/lj93 zlo EDGE                2 1 3 units box

######################  FIXES ############################

fix             1 cubes rigid/nvt/small molecule temp 1.0 1.0 0.25
64 rigid bodies with 73152 atoms
  6.94564 = max distance from body owner to body atom

fix             2 solvent nve

## Thermostat

region          regthermo block EDGE EDGE EDGE EDGE 0 20

group           thermo dynamic solvent region regthermo every 1000
dynamic group thermo defined

fix             3 thermo langevin 1.0 1.0 10 156453

## Evaporation

region		reg_evap	block	EDGE EDGE EDGE EDGE 140 160

fix 		evap 	solvent evaporate 1 25 reg_evap 156745

#### Load balancing

fix             bal all balance 1000 1.05 shift z 10 1.05

############### Diagnostics and computes ###################
compute        com cubes          rigid/local   1 mol x y z
compute        quat cubes         rigid/local   1 mol quatw quati quatj quatk

thermo          1000
thermo_style    custom step temp epair evdwl etotal press pe ke vol

dump            1 all custom 100000 dump.lammpstrj id mol type x y z
dump            2 all image 10000 image.*.png type type

dump_modify     2 pad 8

dump		image cubes image 10000 image_cubes.*.png type type

dump_modify	image pad 8

dump            3 all movie 5000 movie.avi type type
dump           com cubes local 1000 dump.*.xyz c_com[*]
dump           quat cubes      local 1000 dump.*.quat c_quat[*]

restart         1000000 restart.dat
timestep        0.0025
timer           full
New timer settings: style=full  mode=nosync  timeout=off

run            10000000
Setting up Verlet run ...
  Unit style    : lj
  Current step  : 0
  Time step     : 0.0025
Step Temp E_pair E_vdwl TotEng Press PotEng KinEng Volume
0   0.99486084   -3.9931875   -3.9931875   -2.7123208  0.036252383   -3.9931875    1.2808667      1024000
Averages over the last 5001 of 10001 rows, steps 5000000 to 10000000:
Temp E_pair E_vdwl TotEng Press PotEng KinEng Volume
0.274553 -2.83494 -2.83494 -1.97147 0.000660967 -2.83494 0.863473 1.024e+06
Loop time of 391514 on 256 procs for 10000000 steps with 104167 atoms
