LAMMPS (29 Oct 2020)
# Simple rigid body system
# needed variables: startTemp, temp

units		lj
atom_style	full
dimension 	3
boundary	p p f
pair_style	lj/smooth/linear 2.5

variable 	sigma		equal 1.0
variable 	epsilon 	equal 1.0

region		box block 0 40 0 40 0 80
create_box 	3 box
Created orthogonal box = (0.0000000 0.0000000 0.0000000) to (40.000000 40.000000 80.000000)

lattice 	sc 0.66
Lattice spacing in x,y,z = 1.1485556 1.1485556 1.1485556
region 		fluid block EDGE EDGE EDGE EDGE 2 40
create_atoms 	1 region fluid
Created 47775 atoms

lattice 	sc 0.045
Lattice spacing in x,y,z = 2.8114422 2.8114422 2.8114422
region 		gas block EDGE EDGE EDGE EDGE 41 79
create_atoms    1 region gas
Created 0 atoms

mass		1 1.0
mass		2 1.0
mass		3 1.0

group		solvent type 1
47775 atoms in group solvent

velocity 	solvent create 1.0 563435 loop geom

neighbor 	0.4 bin

pair_coeff	1 1 1.0 1.0
pair_coeff	2 2 0.0 0.0
pair_coeff	3 3 0.0 0.0
pair_coeff	2 3 0.0 0.0
pair_coeff	1 2*3 0.0 0.0

pair_modify 	shift yes

balance 	1.05 shift z 10 1.05
Balancing ...
  update every 1 steps, delay 10 steps, check yes
 rebalancing time: 0.006 seconds
  iteration count = 5
  initial/final maximal load/proc = 5508.0000 3240.0000
  initial/final imbalance factor  = 1.8446468 1.0850863
  x cuts: 0.0000000 0.5 1.0000000
  y cuts: 0.0000000 0.5 1.0000000
  z cuts: 0.0000000 0.1640625 0.3046875 0.453125 1.0000000

####################### WALLS ###########################

variable       epsilonWall equal 2*1

variable       cutoffTop   equal   0.7147*1

variable       cutoffLow   equal   3*1

fix            topWall all wall/lj93 zhi EDGE                2 1 0.7147 units box

fix            lowWall all wall/lj93 zlo EDGE                2 1 3 units box

###################### COMPUTES ##########################

compute        bin1 solvent chunk/atom bin/1d z upper 1.0

######################	FIXES ############################

fix 		peclet solvent ave/chunk 1000 1 1000 bin1 density/number norm 		 sample ave one file density.profile

fix 		 temp solvent ave/chunk 1000 1 1000 bin1 temp norm sample ave one file temp.profile

#fix 		2 solvent nve/limit 0.1

#run 		100000
#unfix 		2

## Thermostat

region		regthermo block EDGE EDGE EDGE EDGE 0 20

group 		thermo dynamic solvent region regthermo every 1000
dynamic group thermo defined

fix 		3 thermo langevin 1.0 1.1 10 156453

#### Load balancing

fix 		bal all balance 1000 1.05 shift z 10 1.05

############### Diagnostics and computes ###################
dump		1 all custom 100000 dump.lammpstrj id mol type x y z
dump 		2 all image 10000 image.*.png type type
dump 		3 all movie 1000 movie.avi type type

################ RUN  ##########################
thermo 		1000
thermo_style 	custom step temp epair evdwl etotal press pe ke vol

restart 	500000 restart.dat
timestep 	0.005
timer 		full
New timer settings: style=full  mode=nosync  timeout=off

run		1000000
Step Temp E_pair E_vdwl TotEng Press PotEng KinEng Volume
0            1   -3.6131624   -3.6131624   -2.1131938  -0.69764927   -3.6131624    1.4999686       128000
Averages over the last 501 of 1001 rows, steps 500000 to 1000000:
Temp E_pair E_vdwl TotEng Press PotEng KinEng Volume
1.07457 -2.0454 -2.0454 -0.433572 0.186028 -2.0454 1.61182 128000
Loop time of 2018.13 on 16 procs for 1000000 steps with 47775 atoms

write_restart   restart_write.dat
System init for write_restart ...
write_data	data.write
System init for write_data ...
