LAMMPS (24 Dec 2020)
# Simple rigid body system
# needed variables:

#variable	startTemp equal 0.5
#variable 	temp 	  equal 0.8

units		lj
atom_style	full
dimension 	3
boundary	p p f
pair_style	lj/cut/opt 2.5

variable 	sigma		equal 1.0
variable 	epsilon 	equal 1.0

region		box block 0 100 0 100 0 200
create_box 	3 box
Created orthogonal box = (0.0000000 0.0000000 0.0000000) to (100.00000 100.00000 200.00000)

lattice 	sc 0.66
Lattice spacing in x,y,z = 1.1485556 1.1485556 1.1485556
region		fluid block EDGE EDGE EDGE EDGE 2 130 units box
create_atoms 	1 region fluid
Created 867328 atoms

lattice 	sc 0.045
Lattice spacing in x,y,z = 2.8114422 2.8114422 2.8114422
region		gas block EDGE EDGE EDGE EDGE 131 198 units box
create_atoms    1 region gas
Created 31104 atoms

group		solvent type 1
898432 atoms in group solvent

mass		1 1.0
mass		2 1.0
mass		3 1.0

neighbor 	0.4 bin

pair_coeff	1 1 1.0 1.0
pair_coeff	2 2 0.0 0.0
pair_coeff	3 3 0.0 0.0
pair_coeff	2 3 0.0 0.0
pair_coeff	1 2*3 0.0 0.0

pair_modify 	shift yes

delete_atoms	overlap 0.5 solvent solvent
System init for delete_atoms ...
  update every 1 steps, delay 10 steps, check yes
Deleted 19600 atoms, new total = 878832

velocity 	solvent create 1.0 563435 loop geom

balance 	1.05 shift z 10 1.05
Balancing ...
  update every 1 steps, delay 10 steps, check yes
 rebalancing time: 0.038 seconds
  iteration count = 6
  initial/final maximal load/proc = 9680.0000 6776.0000
  initial/final imbalance factor  = 1.5861052 1.1102736
  x cuts: 0.0000000 0.25000000 0.50000000 0.75000000 1.0000000
  y cuts: 0.0000000 0.25000000 0.50000000 0.75000000 1.0000000
  z cuts: 0.0000000 0.081597222 0.15451389 0.23090278 0.30208333 0.37847222 0.45486111 0.53298611 0.60243056 1.0000000

####################### WALLS ###########################

variable       epsilonWall equal 2*1

variable       cutoffTop   equal   0.7147*1

variable       cutoffLow   equal   3*1

fix            topWall all wall/lj93 zhi EDGE                2 1 0.7147 units box

fix            lowWall all wall/lj93 zlo EDGE                2 1 3 units box

###################### COMPUTES ##########################

compute        bin1 solvent chunk/atom bin/1d z upper 1.0

######################	FIXES ############################

fix 		peclet solvent ave/chunk 1000 1 1000 bin1 density/number norm 		 none ave one file density.profile

fix 		 temp solvent ave/chunk 1000 1 1000 bin1 temp norm 		 none ave one file temp.profile

fix 		2 solvent nve

## Thermostat

region		regthermo block EDGE EDGE EDGE EDGE 0 20 units box

group 		thermo dynamic solvent region regthermo every 1000
dynamic group thermo defined

fix 		3 thermo langevin 1.0 1.0 10 156453

#### Load balancing

fix 		bal all balance 1000 1.05 shift z 10 1.05

############### Diagnostics and computes ###################
#compute 	com cube	  rigid/local	1 mol x y z
#compute 	quat cube	  rigid/local	1 mol quatw quati quatj quatk

thermo 		1000
thermo_style 	custom step temp epair evdwl etotal press pe ke atoms

dump		1 all custom 100000 dump.lammpstrj id mol type x y z
dump 		2 all image 10000 image.*.png type type
dump 		3 all movie 1000 movie.avi type type

#dump 		com cube local 1000 dump.*.xyz c_com[*]
#dump		quat cube      local 1000 dump.*.quat c_quat[*]

restart 	1000000 restart.dat
timestep 	0.005
timer 		full
New timer settings: style=full  mode=nosync  timeout=off

run		3000000
Step Temp E_pair E_vdwl TotEng Press PotEng KinEng Atoms
0            1    -4.085589    -4.085589   -2.5855908    -1.390929    -4.085589    1.4999983   878832
Averages over the last 1501 of 3001 rows, steps 1500000 to 3000000:
Temp E_pair E_vdwl TotEng Press PotEng KinEng Atoms
0.97575 -3.40962 -3.40962 -1.946 0.049502 -3.40962 1.46362 878832
Loop time of 11178.5 on 144 procs for 3000000 steps with 878832 atoms

write_data	data.lj
System init for write_data ...
