LAMMPS (24 Dec 2020)
# Simple rigid body system
# needed variables:

#variable	startTemp equal 0.5
#variable 	temp 	  equal 0.8

units		lj
atom_style	full
dimension 	3
boundary	p p f
pair_style	lj/smooth/linear 1.5

variable 	sigma		equal 1.0
variable 	epsilon 	equal 1.0

region		box block 0 80 0 80 0 160
create_box 	3 box
Created orthogonal box = (0.0000000 0.0000000 0.0000000) to (80.000000 80.000000 160.00000)

lattice 	sc 0.66
Lattice spacing in x,y,z = 1.1485556 1.1485556 1.1485556
region		fluid block EDGE EDGE EDGE EDGE 2 100 units box
create_atoms 	1 region fluid
Created 421400 atoms

#lattice 	sc 0.045
#region		gas block EDGE EDGE EDGE EDGE 101 158 units box
#create_atoms    1 region gas

group		solvent type 1
421400 atoms in group solvent

mass		1 1.0
mass		2 1.0
mass		3 1.0

neighbor 	0.4 bin

pair_coeff	1 1 1.0 1.0
pair_coeff	2 2 0.0 0.0
pair_coeff	3 3 0.0 0.0
pair_coeff	2 3 0.0 0.0
pair_coeff	1 2*3 0.0 0.0

pair_modify 	shift yes

#delete_atoms	overlap 0.5 solvent solvent

velocity 	solvent create .8 563435 loop geom

balance 	1.05 shift z 10 1.05
Balancing ...
  update every 1 steps, delay 10 steps, check yes
 rebalancing time: 0.032 seconds
  iteration count = 5
  initial/final maximal load/proc = 3888.0000 2376.0000
  initial/final imbalance factor  = 1.7714665 1.0825629
  x cuts: 0.0000000 0.16666667 0.33333333 0.50000000 0.66666667 0.83333333 1.0000000
  y cuts: 0.0000000 0.25000000 0.50000000 0.75000000 1.0000000
  z cuts: 0.0000000 0.089843750 0.16796875 0.24218750 0.32031250 0.39843750 0.48046875 0.55859375 1.0000000

####################### WALLS ###########################

variable       epsilonWall equal 2*1

variable       cutoffTop   equal   0.7147*1

variable       cutoffLow   equal   3*1

fix            topWall all wall/lj93 zhi EDGE                2 1 0.7147 units box

fix            lowWall all wall/lj93 zlo EDGE                2 1 3 units box

###################### COMPUTES ##########################

compute        bin1 solvent chunk/atom bin/1d z upper 1.0

######################	FIXES ############################

fix 		peclet solvent ave/chunk 10 10 1000 bin1 density/number norm 		 none ave one file density.profile

fix 		 temp solvent ave/chunk 10 10 1000 bin1 temp norm 		 none ave one file temp.profile

fix 		2 solvent nve

## Thermostat

region		regthermo block EDGE EDGE EDGE EDGE 0 20 units box

group 		thermo dynamic solvent region regthermo every 1000
dynamic group thermo defined

fix 		3 thermo langevin .8 .8 10 156453

#### Load balancing

fix 		bal all balance 1000 1.05 shift z 10 1.05

############### Diagnostics and computes ###################
#compute 	com cube	  rigid/local	1 mol x y z
#compute 	quat cube	  rigid/local	1 mol quatw quati quatj quatk

thermo 		1000
thermo_style 	custom step temp epair evdwl etotal press pe ke atoms

dump		1 all custom 100000 dump.lammpstrj id mol type x y z
dump 		2 all image 10000 image.*.png type type
dump 		3 all movie 1000 movie.avi type type

#dump 		com cube local 1000 dump.*.xyz c_com[*]
#dump		quat cube      local 1000 dump.*.quat c_quat[*]

restart 	1000000 restart.dat
timestep 	0.005
timer 		full
New timer settings: style=full  mode=nosync  timeout=off

run		4000000
Step Temp E_pair E_vdwl TotEng Press PotEng KinEng Atoms
0          0.8    2.2548251    2.2548251    3.4548223    5.7530085    2.2548251    1.1999972   421400
Averages over the last 2001 of 4001 rows, steps 2000000 to 4000000:
Temp E_pair E_vdwl TotEng Press PotEng KinEng Atoms
0.925319 -0.186948 -0.186948 1.20103 0.869857 -0.186948 1.38797 421400
Loop time of 2633.42 on 192 procs for 4000000 steps with 421400 atoms

write_data	data.lj
System init for write_data ...

## Evaporation
region          regevap block EDGE EDGE EDGE EDGE 140 180 units box
fix             4 solvent evaporate 35 1 regevap 156415

run 		20000000
Step Temp E_pair E_vdwl TotEng Press PotEng KinEng Atoms
4000000   0.91626898  -0.18914311  -0.18914311    1.1852571   0.85930038  -0.18914311    1.3744002   421400
Averages over the last 10001 of 20001 rows, steps 14000000 to 24000000:
Temp E_pair E_vdwl TotEng Press PotEng KinEng Atoms
0.0645347 -0.0145465 -0.0145465 0.698515 0.0308484 -0.0145465 0.713062 32227.3
Loop time of 5594.5 on 192 procs for 20000000 steps with 0 atoms
