LAMMPS (29 Oct 2020)
units           lj
atom_style      full
atom_modify     map array first cubes
dimension       3
boundary        p p f

variable        sigma           equal 1.0
variable        epsilon         equal 1.0

read_data       data.rigid
Reading data file ...
  orthogonal box = (0.0000000 0.0000000 0.0000000) to (20.000000 20.000000 20.000000)
  reading atoms ...
  1143 atoms
Finding 1-2 1-3 1-4 neighbors ...
     0 = max # of 1-2 neighbors
     0 = max # of 1-3 neighbors
     0 = max # of 1-4 neighbors
     1 = max # of special neighbors
replicate       8 8 8
Replicating atoms ...
  orthogonal box = (0.0000000 0.0000000 0.0000000) to (160.00000 160.00000 160.00000)
  585216 atoms
Finding 1-2 1-3 1-4 neighbors ...
     0 = max # of 1-2 neighbors
     0 = max # of 1-3 neighbors
     0 = max # of 1-4 neighbors
     1 = max # of special neighbors
  replicate CPU = 0.036 seconds
group           cubes type 2 3
585216 atoms in group cubes

velocity        cubes create 10.0 45345 loop geom

pair_style      soft 1.12
pair_coeff      1 1 0.0 0.0
pair_coeff      2 2 0.0
pair_coeff      3 3 0.0
pair_coeff      1 3 0.0 0.0
pair_coeff      2 3 0.0
pair_coeff      1 2 0.0 0.0

variable        prefactor equal ramp(0,60)
fix             soft all adapt 1 pair soft a * * v_prefactor

neighbor        0.3 bin
neigh_modify    delay 0 every 1 check yes

#fix             1     cubes rigid molecule

dump 		1 all movie 100 movie.avi type type

compute         tbig all temp
thermo_modify   temp tbig

thermo          100
run             1000
  update every 1 steps, delay 0 steps, check yes
Setting up Verlet run ...
  Unit style    : lj
  Current step  : 0
  Time step     : 0.005
Step Temp E_pair E_mol TotEng Press
0           10            0            0    14.999974    1.4287476
Averages over the last 6 of 11 rows, steps 500 to 1000:
Temp E_pair E_mol TotEng Press
10 6.80028 0 21.8003 6.77541
Loop time of 2.23498 on 64 procs for 1000 steps with 585216 atoms

unfix 		soft

reset_timestep 	0

pair_style	lj/cut/opt 2.5
pair_modify	shift yes

pair_coeff	1 1 0.0 0.0

pair_coeff	2 2 1.0 1.0

pair_coeff	1 2 0.0 0.0

pair_coeff	1 3 0.0 0.0

pair_coeff	2 3 0.0 0.0

pair_coeff	3 3 0.0 0.0

comm_modify	cutoff 6.93

fix 		1 cubes rigid/small molecule
  512 rigid bodies with 585216 atoms
  6.9282032 = max distance from body owner to body atom

####################### WALLS ###########################

variable       epsilonWall equal 2*1

variable       cutoffTop   equal   0.7147*1

variable       cutoffLow   equal   3*1

region         lowWall block EDGE EDGE EDGE EDGE EDGE 2

delete_atoms   region lowWall
Deleted 0 atoms, new total = 585216

fix            topWall all wall/lj93 zhi EDGE                2 1 0.7147 units box

fix            lowWall all wall/lj93 zlo EDGE                2 1 3 units box

velocity	all create 10.0 12571 loop geom

dump 		2 all movie 100 movie_cubes.avi type type

run 		500000
  update every 1 steps, delay 0 steps, check yes
Setting up Verlet run ...
  Unit style    : lj
  Current step  : 0
  Time step     : 0.005
Step Temp E_pair E_mol TotEng Press
0    9.4444301  -0.36619638            0  -0.34143206  -0.38876339
Averages over the last 2501 of 5001 rows, steps 250000 to 500000:
Temp E_pair E_mol TotEng Press
18.0534 -0.386073 0 -0.338735 0.00372178
Loop time of 6908.53 on 64 procs for 500000 steps with 585216 atoms

write_data      data.cubes
System init for write_data ...
