LAMMPS (24 Dec 2020)
units		lj
atom_style	full
dimension 	3
boundary	p p f
pair_style	lj/smooth/linear 2.0

variable 	sigma		equal 1.0
variable 	epsilon 	equal 1.0

region		box block 0 120 0 120 0 240
create_box 	3 box
Created orthogonal box = (0.0000000 0.0000000 0.0000000) to (120.00000 120.00000 240.00000)

lattice 	sc 0.66
Lattice spacing in x,y,z = 1.1485556 1.1485556 1.1485556
region		fluid block EDGE EDGE EDGE EDGE 2 160 units box
create_atoms 	1 region fluid
Created 1521450 atoms

lattice 	sc 0.045
Lattice spacing in x,y,z = 2.8114422 2.8114422 2.8114422
region		gas block EDGE EDGE EDGE EDGE 161 238 units box
create_atoms    1 region gas
Created 49923 atoms

group		solvent type 1
1571373 atoms in group solvent

mass		1 1.0
mass		2 1.0
mass		3 1.0

neighbor 	0.4 bin

pair_coeff	1 1 1.0 1.0
pair_coeff	2 2 0.0 0.0
pair_coeff	3 3 0.0 0.0
pair_coeff	2 3 0.0 0.0
pair_coeff	1 2*3 0.0 0.0

pair_modify 	shift yes

delete_atoms	overlap 0.5 solvent solvent
System init for delete_atoms ...
  update every 1 steps, delay 10 steps, check yes
Deleted 0 atoms, new total = 1571373

velocity 	solvent create .65 563435 loop geom

balance 	1.05 shift z 10 1.05
Balancing ...
  update every 1 steps, delay 10 steps, check yes
 rebalancing time: 0.012 seconds
  iteration count = 9
  initial/final maximal load/proc = 8748.0000 6318.0000
  initial/final imbalance factor  = 1.6033265 1.1579580
  x cuts: 0.0000000 0.25000000 0.50000000 0.75000000 1.0000000
  y cuts: 0.0000000 0.16666667 0.33333333 0.50000000 0.66666667 0.83333333 1.0000000
  z cuts: 0.0000000 0.062337240 0.11962891 0.17692057 0.23470052 0.29199219 0.34928385 0.40706380 0.46402995 0.51708984 0.57486979 0.63216146 1.0000000

####################### WALLS ###########################

variable       epsilonWall equal 2*1

variable       cutoffTop   equal   0.7147*1

variable       cutoffLow   equal   3*1

fix            topWall all wall/lj93 zhi EDGE                2 1 0.7147 units box

fix            lowWall all wall/lj93 zlo EDGE                2 1 3 units box

###################### COMPUTES ##########################

compute        bin1 solvent chunk/atom bin/1d z lower 1.0 units box
compute        bin3 solvent chunk/atom bin/3d x lower 5.0 y lower 5.0 z lower 5.0 units box

compute         pe solvent         pe/atom
compute         pe2 all            pe/atom

######################  FIXES ############################

fix             peclet solvent ave/chunk 10 10 10000 bin1 density/number norm                  none ave one file density.profile

fix              temp solvent ave/chunk 10 10 10000 bin1 temp norm                  none ave one file temp.profile

fix              dens solvent ave/chunk 10 10 500000 bin3 density/number norm                  none ave one file dens3.profile

fix              temp2 solvent ave/chunk 10 10 500000 bin3 temp norm none ave one file temp3.profile

fix             pe solvent ave/chunk 1 1 500000 bin3 c_pe norm none ave one file pe3.profile

## Thermostat

region		regthermo block EDGE EDGE EDGE EDGE 0 20 units box

group 		thermo dynamic solvent region regthermo every 1000
dynamic group thermo defined

fix 		3 thermo langevin .65 .65 10 156453

#### Load balancing

fix 		bal all balance 1000 1.05 shift z 10 1.05

############### Diagnostics and computes ###################
#compute 	com cube	  rigid/local	1 mol x y z
#compute 	quat cube	  rigid/local	1 mol quatw quati quatj quatk

thermo 		1000
thermo_style 	custom step temp epair evdwl etotal press pe ke atoms

dump		1 all custom 100000 dump.lammpstrj id mol type x y z
dump 		2 all image 10000 image.*.png type type
dump 		3 all movie 1000 movie.avi type type

#dump 		com cube local 1000 dump.*.xyz c_com[*]
#dump		quat cube      local 1000 dump.*.quat c_quat[*]

restart 	1000000 restart.dat
timestep 	0.005
timer 		full
New timer settings: style=full  mode=nosync  timeout=off

run		5000000
Step Temp E_pair E_vdwl TotEng Press PotEng KinEng Atoms
0         0.65    90.492435    90.492435    91.467434    170.87561    90.492435   0.97499938  1571373
Averages over the last 2501 of 5001 rows, steps 2500000 to 5000000:
Temp E_pair E_vdwl TotEng Press PotEng KinEng Atoms
0.65 90.4924 90.4924 91.4674 170.876 90.4924 0.974999 1.57137e+06
Loop time of 8785.74 on 288 procs for 5000000 steps with 1571373 atoms

write_data	data.lj
System init for write_data ...

## Evaporation
#region          regevap block EDGE EDGE EDGE EDGE 140 EDGE units box

#run 		20000000
