LAMMPS (24 Dec 2020)
#Read the equilibrated lj fluid and add nanocubes

units           lj
atom_style      full
atom_modify     map array first cubes
dimension       3
boundary        p p f
pair_style      lj/cut/opt 2.5

variable        sigma           equal 1.0
variable        epsilon         equal 1.0
read_restart 	restart.dat.1000000
Reading restart file ...
  restart file = 24 Dec 2020, LAMMPS = 24 Dec 2020
  restoring atom style full from restart
  orthogonal box = (0.0000000 0.0000000 0.0000000) to (160.00000 160.00000 320.00000)
  restoring pair style lj/cut/opt from restart
  4233413 atoms
Finding 1-2 1-3 1-4 neighbors ...
     0 = max # of 1-2 neighbors
     0 = max # of 1-3 neighbors
     0 = max # of 1-4 neighbors
     1 = max # of special neighbors
  read_restart CPU = 3.691 seconds

group		solvent type 1
3648197 atoms in group solvent

neighbor      0.4 bin
neigh_modify  exclude molecule/intra cubes

pair_modify   shift yes

pair_coeff    1 1 1.0 1.0 #solvent
pair_coeff    2 2 0.6 1.0 #np
pair_coeff    3 3 0.0 0.0 0.0 #dummy
pair_coeff    2 3 0.0 0.0 0.0 #np dummy
pair_coeff    1 2 0.8 1.0 #np solvent
pair_coeff    1 3 0.0 0.0 0.0 #dummy solvent

comm_modify   mode multi cutoff/multi 1 2.5 cutoff/multi 2 2.5 cutoff/multi 3 6.95

reset_timestep 	0

balance 	1.05 shift z 10 1.05
Balancing ...
Unused restart file global fix info:
  fix style: rigid/nvt/small, fix ID: 1
  fix style: STORE, fix ID: msd_COMPUTE_STORE
  update every 1 steps, delay 10 steps, check yes
 rebalancing time: 0.073 seconds
  iteration count = 4
  initial/final maximal load/proc = 30528.000 25187.000
  initial/final imbalance factor  = 1.7306887 1.4278975
  x cuts: 0.0000000 0.20000000 0.40000000 0.60000000 0.80000000 1.0000000
  y cuts: 0.0000000 0.25000000 0.50000000 0.75000000 1.0000000
  z cuts: 0.0000000 0.057291667 0.10937500 0.15625000 0.21875000 0.26041667 0.32812500 0.38020833 0.43229167 0.47916667 0.52083333 0.60416667 1.0000000

####################### WALLS ###########################

variable       epsilonWall equal 2*1

variable       cutoffTop   equal   0.7147*1

variable       cutoffLow   equal   3*1

region         lowWall block EDGE EDGE EDGE EDGE EDGE 2

fix            topWall all wall/lj93 zhi EDGE 	       2 1 0.7147 units box

fix            lowWall all wall/lj93 zlo EDGE                2 1 3 units box

######################  FIXES ############################

fix             1 cubes rigid/nvt/small molecule temp 0.8 0.8 0.25
  512 rigid bodies with 585216 atoms
  6.9282032 = max distance from body owner to body atom

fix             2 solvent nve

## Thermostat

region          regthermo block EDGE EDGE EDGE EDGE 0 20

group           thermo dynamic solvent region regthermo every 1000
dynamic group thermo defined

fix             3 thermo langevin 0.8 0.8 0.1 156453

#### Load balancing

fix             bal all balance 1000 1.05 shift z 10 1.05

############### Diagnostics and computes ###################

compute        com cubes          rigid/local   1 mol x y z
compute        quat cubes         rigid/local   1 mol quatw quati quatj quatk
compute 	cc2 cubes chunk/atom molecule

compute 	msd cubes msd/chunk cc2

thermo          1000
thermo_style    custom step temp epair evdwl etotal press pe ke vol

dump            1 all custom 100000 dump.lammpstrj id mol type x y z
dump            2 all image 10000 image.*.png type type
dump_modify     2 pad 8

dump		image cubes image 10000 image_cubes.*.png type type
dump_modify	image pad 8

dump            3 all movie 5000 movie.avi type type
dump		4 cubes movie 5000 movie.avi type type zoom 2.0

dump           com cubes local 1000 dump.*.xyz c_com[*]
dump           quat cubes      local 1000 dump.*.quat c_quat[*]

restart         500000 restart.dat
timestep        0.005
timer           full
New timer settings: style=full  mode=nosync  timeout=off

run            2000000
Step Temp E_pair E_vdwl TotEng Press PotEng KinEng Volume
0   0.79666546   -3.8702449   -3.8702449   -2.8401514 -0.0015405771   -3.8702449    1.0300935      8192000
Averages over the last 1001 of 2001 rows, steps 1000000 to 2000000:
Temp E_pair E_vdwl TotEng Press PotEng KinEng Volume
0.799149 -3.86142 -3.86142 -2.82812 0.0284894 -3.86142 1.0333 8.192e+06
Loop time of 39825 on 240 procs for 2000000 steps with 4233413 atoms
