LAMMPS (24 Dec 2020)
#Read the equilibrated lj fluid and add nanocubes

units           lj
atom_style      full
#atom_modify     map array first cubes
dimension       3
boundary        p p f
pair_style      lj/cut/opt 2.5

variable        sigma           equal 1.0
variable        epsilon         equal 1.0
read_restart	restart.dat.4000000
Reading restart file ...
  restart file = 24 Dec 2020, LAMMPS = 24 Dec 2020
  restoring atom style full from restart
  orthogonal box = (0.0000000 0.0000000 0.0000000) to (80.000000 80.000000 160.00000)
  restoring pair style lj/cut/opt from restart
  569361 atoms
Finding 1-2 1-3 1-4 neighbors ...
     0 = max # of 1-2 neighbors
     0 = max # of 1-3 neighbors
     0 = max # of 1-4 neighbors
     1 = max # of special neighbors
  read_restart CPU = 2.992 seconds

group		solvent type 1
426486 atoms in group solvent
group 		hull  type 2
55750 atoms in group hull
group 		dummy type 3
87125 atoms in group dummy

neighbor      0.4 bin
neigh_modify  exclude molecule/intra cubes

pair_modify   shift yes

pair_coeff    1 1 1.0 1.0 #solvent
pair_coeff    2 2 1.0 1.0 1.12 #np
pair_coeff    3 3 0.0 0.0 0.0 #dummy
pair_coeff    2 3 0.0 0.0 0.0 #np dummy
pair_coeff    1 2 1.0 1.0 4.0
pair_coeff    1 3 0.0 0.0 0.0 #dummy solvent

comm_modify   mode multi cutoff/multi 1 2.5 cutoff/multi 2 4.0 cutoff/multi 3 6.95

reset_timestep 	0

balance 	1.05 shift z 10 1.05
Balancing ...
Unused restart file global fix info:
  fix style: STORE, fix ID: msd_COMPUTE_STORE
Unused restart file peratom fix info:
  fix style: STORE, fix ID: bin1_COMPUTE_STORE
  update every 1 steps, delay 10 steps, check yes
 rebalancing time: 0.055 seconds
  iteration count = 5
  initial/final maximal load/proc = 3026.0000 2628.0000
  initial/final imbalance factor  = 1.5306422 1.3293218
  x cuts: 0.0000000 0.16666667 0.33333333 0.50000000 0.66666667 0.83333333 1.0000000
  y cuts: 0.0000000 0.25000000 0.50000000 0.75000000 1.0000000
  z cuts: 0.0000000 0.080729167 0.14843750 0.21093750 0.27343750 0.34114583 0.40104167 0.46354167 0.52604167 0.60937500 0.68229167 0.76562500 1.0000000

####################### WALLS ###########################

variable       epsilonWall equal 2*1
variable       repulsive   equal   0.7147*1
variable       full	   equal   3*1
region         lowWall block EDGE EDGE EDGE EDGE EDGE 2

fix            topWall all wall/lj93 zhi EDGE 	       2 1 0.7147 units box
fix            lowSol solvent wall/lj93 zlo EDGE                2 1 3 units box
fix 	       lowCub cubes wall/lj93 zlo EDGE                2 1 0.7147 units box

###################### COMPUTES ##########################

compute        bin1 solvent chunk/atom bin/1d z lower 1.0 units box

######################  FIXES ############################

fix             peclet solvent ave/chunk 10000 1 10000 bin1 density/number norm                  none ave one file density.profile

fix              temp solvent ave/chunk 10000 1 10000 bin1 temp norm                  none ave one file temp.profile

  125 rigid bodies with 142875 atoms
  6.9282032 = max distance from body owner to body atom

fix             2 solvent nve

## Thermostat
region          regthermo block EDGE EDGE EDGE EDGE 0 20
group           thermo dynamic solvent region regthermo every 1000
dynamic group thermo defined
fix             3 thermo langevin 1.0 1.0 10 156453

## Evaporation
region		regevap block EDGE EDGE EDGE EDGE 140 EDGE
fix		4 solvent evaporate 185 1 regevap 156415

#### Load balancing

fix             bal all balance 1000 1.05 shift z 10 1.05

############### Diagnostics and computes ###################

compute        	com cubes          rigid/local   1 mol x y z
compute        	quat cubes         rigid/local   1 mol quatw quati quatj quatk

compute 	cc2 cubes 	   chunk/atom 	 molecule
compute 	msd cubes 	   msd/chunk 	 cc2

fix 		msd all ave/time  1 1 10000 c_msd[*] file dump.msd ave one mode vector

dump            1 all custom 500000 dump.lammpstrj id mol type x y z
dump		cubetrj hull custom 500000 cubes.lammpstrj id mol type x y z
dump            com cubes local 10000 dump.*.xyz c_com[*]
dump	        xyz hull xyz 100000 cubes.xyz
dump            quat cubes      local 10000 dump.*.quat c_quat[*]
#dump		mol cubes molfile 10000 mol.xyz xyz

dump            2 all image 10000 image.*.png type type
dump_modify     2 pad 8
dump		image cubes image 10000 image_cubes.*.png type type
dump_modify	image pad 8
dump            3 all movie 5000 movie.avi type type
dump		4 cubes movie 5000 movie_cubes.avi type type

thermo          1000
thermo_style    custom step temp epair evdwl etotal press pe ke atoms

restart         1000000 restart1.dat restart2.dat
timestep        0.005
timer           full
New timer settings: style=full  mode=nosync  timeout=off

run 		20000000
Step Temp E_pair E_vdwl TotEng Press PotEng KinEng Atoms
0    1.0062313   -2.7767937   -2.7767937    -1.645541  0.062233491   -2.7767937    1.1312527   569361
Averages over the last 10001 of 20001 rows, steps 10000000 to 20000000:
Temp E_pair E_vdwl TotEng Press PotEng KinEng Atoms
0.806454 -2.63346 -2.63346 -1.57668 0.0598963 -2.63346 1.05678 488280
Loop time of 60321.1 on 288 procs for 20000000 steps with 461253 atoms
