LAMMPS (24 Dec 2020)
# Simple rigid body system
# needed variables: startTemp, temp

units		lj
atom_style	full
dimension 	3
boundary	p p f
pair_style	lj/smooth/linear 1.5

variable 	sigma		equal 1.0
variable 	epsilon 	equal 1.0

region		box block 0 80 0 80 0 160
create_box 	3 box
Created orthogonal box = (0.0000000 0.0000000 0.0000000) to (80.000000 80.000000 160.00000)
lattice 	sc 1.0
Lattice spacing in x,y,z = 1.0000000 1.0000000 1.0000000

region		create block EDGE EDGE EDGE EDGE 2 82

create_atoms 	1 region create
Created 518400 atoms

mass		1 1.0
mass		2 1.0
mass		3 1.0

group		solvent type 1
518400 atoms in group solvent

velocity 	solvent create 0.5 563435 loop geom

neighbor 	0.4 bin

pair_coeff	1 1 1.0 1.0
pair_coeff	2 2 0.0 0.0
pair_coeff	3 3 0.0 0.0
pair_coeff	2 3 0.0 0.0
pair_coeff	1 2*3 0.0 0.0

pair_modify 	shift yes

balance 	1.05 shift z 10 1.05
Balancing ...
  update every 1 steps, delay 10 steps, check yes
 rebalancing time: 0.028 seconds
  iteration count = 4
  initial/final maximal load/proc = 21600.000 12960.000
  initial/final imbalance factor  = 2.0000000 1.2000000
  x cuts: 0.0000000 0.50000000 1.0000000
  y cuts: 0.0000000 0.33333333 0.66666667 1.0000000
  z cuts: 0.0000000 0.070312500 0.13281250 0.20312500 0.26562500 0.32031250 0.39843750 0.46875000 1.0000000

####################### WALLS ###########################

#region	       low block  EDGE EDGE EDGE EDGE EDGE 2

#region 	       top block  EDGE EDGE EDGE EDGE 159 160

#delete_atoms   region low

#delete_atoms   region top

variable       epsilonWall equal 2*1

variable       cutoffTop   equal   0.7147*1

variable       cutoffLow   equal   3*1

fix            topWall all wall/lj93 zhi EDGE                2 1 0.7147 units box

fix            lowWall all wall/lj93 zlo EDGE                2 1 3 units box

###################### COMPUTES ##########################

compute        bin1 solvent chunk/atom bin/1d z upper 1.0

######################	FIXES ############################

fix 		peclet solvent ave/chunk 1000 1 1000 bin1 density/number norm 		 none ave one file density.profile

fix 		 temp solvent ave/chunk 1000 1 1000 bin1 temp norm none ave one file temp.profile

fix 		2 solvent nvt temp 0.8 0.8 $(100*dt)
fix 		2 solvent nvt temp 0.8 0.8 0.5

## Thermostat

#region		regthermo block EDGE EDGE EDGE EDGE 0 20

#group 		thermo dynamic solvent region regthermo every 1000

#### Load balancing

fix 		bal all balance 1000 1.05 shift z 10 1.05

############### Diagnostics and computes ###################
#compute 	com cube	  rigid/local	1 mol x y z
#compute 	quat cube	  rigid/local	1 mol quatw quati quatj quatk

thermo 		1000
thermo_style 	custom step temp epair evdwl etotal press pe ke atoms

dump		1 all custom 100000 dump.lammpstrj id mol type x y z
dump 		2 all image 10000 image.*.png type type
dump 		3 all movie 1000 movie.avi type type
#dump 		com cube local 1000 dump.*.xyz c_com[*]
#dump		quat cube      local 1000 dump.*.quat c_quat[*]

restart 	1000000 restart.dat
timestep 	0.005
timer 		full
New timer settings: style=full  mode=nosync  timeout=off

run		3000000
Step Temp E_pair E_vdwl TotEng Press PotEng KinEng Atoms
0          0.5    2.5809085    2.5809085    3.3309071    12.322113    2.5809085   0.74999855   518400
Averages over the last 1501 of 3001 rows, steps 1500000 to 3000000:
Temp E_pair E_vdwl TotEng Press PotEng KinEng Atoms
0.800014 -0.263256 -0.263256 0.936763 1.17399 -0.263256 1.20002 518400
Loop time of 8132.51 on 48 procs for 3000000 steps with 518400 atoms

write_restart   restart_write.dat
System init for write_restart ...
write_data	data.write
System init for write_data ...
