LAMMPS (29 Oct 2020)
# Simple rigid body system

units		lj
atom_style	full
dimension 	3
boundary	p p f
pair_style	lj/cut/opt 2.5

variable 	sigma		equal 1.0
variable 	epsilon 	equal 1.0

region		box block 0 80 0 80 0 80
create_box 	3 box
Created orthogonal box = (0.0000000 0.0000000 0.0000000) to (80.000000 80.000000 80.000000)
lattice 	sc 1.0
Lattice spacing in x,y,z = 1.0000000 1.0000000 1.0000000

create_atoms 	1 region box
Created 512000 atoms

mass		1 1.0
mass		2 1.0
mass		3 1.0

group		solvent type 1
512000 atoms in group solvent

velocity 	solvent create 1.0 563435 loop geom

read_data	data.vac add append
Reading data file ...
  orthogonal box = (0.0000000 0.0000000 0.0000000) to (80.000000 80.000000 160.00000)
Finding 1-2 1-3 1-4 neighbors ...
     0 = max # of 1-2 neighbors
     0 = max # of 1-3 neighbors
     0 = max # of 1-4 neighbors
     1 = max # of special neighbors

neighbor 	0.4 bin

pair_coeff	1 1 1.0 1.0
pair_coeff	2 2 0.0 0.0
pair_coeff	3 3 0.0 0.0
pair_coeff	2 3 0.0 0.0
pair_coeff	1 2*3 0.0 0.0

pair_modify 	shift yes

balance 	1.05 shift z 10 1.05
Balancing ...
  update every 1 steps, delay 10 steps, check yes
 rebalancing time: 0.226 seconds
  iteration count = 5
  initial/final maximal load/proc = 256000.00 140800.00
  initial/final imbalance factor  = 2.0000000 1.1000000
  x cuts: 0.0000000 1.0000000
  y cuts: 0.0000000 1.0000000
  z cuts: 0.0000000 0.125 0.2578125 0.375 1.0000000

####################### WALLS ###########################

region	       low block  EDGE EDGE EDGE EDGE 0 2

region 	       top block  EDGE EDGE EDGE EDGE 159 160

delete_atoms   region low
Deleted 19200 atoms, new total = 492800

delete_atoms   region top
Deleted 0 atoms, new total = 492800

variable       epsilonWall equal 2*1

variable       cutoffTop   equal   0.7147*1

variable       cutoffLow   equal   3*1

fix            topWall all wall/lj93 zhi EDGE                2 1 0.7147 units box

fix            lowWall all wall/lj93 zlo EDGE                2 1 3 units box

######################	FIXES ############################

fix 		2 solvent nve

## Thermostat

region		regthermo block EDGE EDGE EDGE EDGE 0 20

group 		thermo dynamic solvent region regthermo every 1000
dynamic group thermo defined

fix 		3 thermo langevin 1.0 1.0 10 156453

#### Load balancing

fix 		bal all balance 1000 1.05 shift z 10 1.05

############### Diagnostics and computes ###################
#compute 	com cube	  rigid/local	1 mol x y z
#compute 	quat cube	  rigid/local	1 mol quatw quati quatj quatk

thermo 		10
thermo_style 	custom step temp epair evdwl etotal press pe ke vol

dump		1 all custom 100000 dump.lammpstrj id mol type x y z
dump 		2 all image 10000 image.*.png type type
dump 		3 all movie 100 movie.avi type type
#dump 		com cube local 1000 dump.*.xyz c_com[*]
#dump		quat cube      local 1000 dump.*.quat c_quat[*]

restart 	100000 restart.dat
timestep 	0.0025
timer 		full
New timer settings: style=full  mode=nosync  timeout=off

run		1000
Step Temp E_pair E_vdwl TotEng Press PotEng KinEng Volume
0   0.99997028   -3.2974116   -3.2974116   -1.7974593    8.5725801   -3.2974116    1.4999524      1024000
Averages over the last 51 of 101 rows, steps 500 to 1000:
Temp E_pair E_vdwl TotEng Press PotEng KinEng Volume
1.73116 -4.46282 -4.46282 -1.86609 4.92627 -4.46282 2.59673 1.024e+06
Loop time of 119.653 on 4 procs for 1000 steps with 492800 atoms
