LAMMPS (3 Mar 2020)
####### Lammps input script for evaporating lj fluid ########

units 	       lj
dimension      3
newton 	       on
boundary       p p f
atom_style     body	rounded/polyhedron 1 1

###### Variables ######
#######################

variable       	epsilon    equal 	1

variable       	sigma      equal 	1

variable       	cutoff     equal 	3.5

##### initialization ######
###########################

read_data   	data.spheres_all 	group	lj
  orthogonal box = (0 0 0) to (40 40 40)
  reading atoms ...
  8000 atoms
  8000 bodies

region		cubeSpace	block 10 30 10 30 10 30

delete_atoms 	region 		cubeSpace  compress yes
Deleted 1000 atoms, new total = 7000

#read_data   	data.cubes 	group	cubes	add	append

replicate 	2 2 2
  orthogonal box = (0 0 0) to (80 80 80)
  56000 atoms
  replicate CPU = 2.43026 secs

read_data	data.vac 	add append
  orthogonal box = (0 0 0) to (80 80 160)

##### potential parameters ######
#################################

pair_style      lj/cut 3.5

pair_coeff      * *  1 1

pair_modify     shift yes

##### simulation settings #########
###################################

comm_modify    vel	yes

neighbor       0.5	bin

neigh_modify   every 1 delay 0 check yes

timestep       0.005

######## fixes ###########
##########################

fix	       1 all nvt/body temp 0.5 0.75 1.0

variable       epsilonWall equal   2*1

variable       cutoffTop   equal   0.7147*1

variable       cutoffLow   equal   3*1

fix            topWall all wall/lj93 zhi EDGE                2 1 0.7147 units box

fix            lowWall all wall/lj93 zlo EDGE                2 1 3 units box

######## computes ########

######## dumps ###########
##########################

dump         image all image 1000 image.*.png type type              zoom 1.0 body type 0 0              view 90 0 size 1920 1080 box yes 0.01

dump         movie all movie 1000 movie.avi type type              zoom 1.0 adiam 10.0 body type 0 0 view 60 15              axes no 1.0 0.01 box yes 0.01 size 1920 1080

####### final setup #######
###########################

velocity      	    all create 0.1 78994

thermo_style  	    custom step temp etotal pe ke press vol density

thermo 	      	    100

run_style	    verlet

run 		    100000
  update every 1 steps, delay 0 steps, check yes
Step Temp TotEng PotEng KinEng Press Volume Density
0          0.1 -0.056503451  -0.20650077   0.14999732 -0.019739799      1024000    0.0546875
Averages over the last 501 of 1001 rows, steps 50000 to 100000:
Temp TotEng PotEng KinEng Press Volume Density
1.37481 1.62822 -0.433953 2.06217 0.0641815 1.024e+06 0.0546875
Loop time of 6111.3 on 64 procs for 100000 steps with 56000 atoms
