LAMMPS (24 Dec 2020)
# Simple rigid body system
# needed variables:

#variable	startTemp equal 0.5
#variable 	temp 	  equal 0.8

units		lj
atom_style	full
dimension 	3
boundary	p p f
pair_style	lj/cut/opt 2.5

variable 	sigma		equal 1.0
variable 	epsilon 	equal 1.0

region		box block 0 60 0 60 0 180
create_box 	3 box
Created orthogonal box = (0.0000000 0.0000000 0.0000000) to (60.000000 60.000000 180.00000)

lattice 	sc 0.66
Lattice spacing in x,y,z = 1.1485556 1.1485556 1.1485556
region		fluid block EDGE EDGE EDGE EDGE 2 122 units box
create_atoms 	1 region fluid
Created 294945 atoms

lattice 	sc 0.045
Lattice spacing in x,y,z = 2.8114422 2.8114422 2.8114422
region		gas block EDGE EDGE EDGE EDGE 123 178 units box
create_atoms    1 region gas
Created 9680 atoms

group		solvent type 1
304625 atoms in group solvent

mass		1 1.0
mass		2 1.0
mass		3 1.0

neighbor 	0.4 bin

pair_coeff	1 1 1.0 1.0
pair_coeff	2 2 0.0 0.0
pair_coeff	3 3 0.0 0.0
pair_coeff	2 3 0.0 0.0
pair_coeff	1 2*3 0.0 0.0

pair_modify 	shift yes

delete_atoms	overlap 0.5 solvent solvent
System init for delete_atoms ...
  update every 1 steps, delay 10 steps, check yes
Deleted 11025 atoms, new total = 293600

velocity 	solvent create 1.0 563435 loop geom

balance 	1.05 shift z 10 1.05
Balancing ...
  update every 1 steps, delay 10 steps, check yes
 rebalancing time: 0.009 seconds
  iteration count = 4
  initial/final maximal load/proc = 4680.0000 3744.0000
  initial/final imbalance factor  = 1.5302452 1.2241962
  x cuts: 0.0000000 0.33333333 0.66666667 1.0000000
  y cuts: 0.0000000 0.25000000 0.50000000 0.75000000 1.0000000
  z cuts: 0.0000000 0.10156250 0.17968750 0.27343750 0.35937500 0.45312500 0.51562500 0.61718750 1.0000000

####################### WALLS ###########################

variable       epsilonWall equal 2*1

variable       cutoffTop   equal   0.7147*1

variable       cutoffLow   equal   3*1

fix            topWall all wall/lj93 zhi EDGE                2 1 0.7147 units box

fix            lowWall all wall/lj93 zlo EDGE                2 1 3 units box

###################### COMPUTES ##########################

compute        bin1 solvent chunk/atom bin/1d z lower 1.0 units box

######################	FIXES ############################

fix 		peclet solvent ave/chunk 1000 1 1000 bin1 density/number norm 		 none ave one file density.profile

fix 		 temp solvent ave/chunk 1000 1 1000 bin1 temp norm 		 none ave one file temp.profile

fix 		2 solvent nve

## Thermostat

region		regthermo block EDGE EDGE EDGE EDGE 0 20 units box

group 		thermo dynamic solvent region regthermo every 1000
dynamic group thermo defined

fix 		3 thermo langevin 1.0 1.0 10 156453

#### Load balancing

fix 		bal all balance 1000 1.05 shift z 10 1.05

############### Diagnostics and computes ###################
#compute 	com cube	  rigid/local	1 mol x y z
#compute 	quat cube	  rigid/local	1 mol quatw quati quatj quatk

thermo 		1000
thermo_style 	custom step temp epair evdwl etotal press pe ke atoms

dump		1 all custom 100000 dump.lammpstrj id mol type x y z
dump 		2 all image 10000 image.*.png type type
dump 		3 all movie 1000 movie.avi type type

#dump 		com cube local 1000 dump.*.xyz c_com[*]
#dump		quat cube      local 1000 dump.*.quat c_quat[*]

restart 	1000000 restart.dat
timestep 	0.005
timer 		full
New timer settings: style=full  mode=nosync  timeout=off

run		3000000
Step Temp E_pair E_vdwl TotEng Press PotEng KinEng Atoms
0            1   -4.0572118   -4.0572118   -2.5572169   -1.4019201   -4.0572118    1.4999949   293600
Averages over the last 1501 of 3001 rows, steps 1500000 to 3000000:
Temp E_pair E_vdwl TotEng Press PotEng KinEng Atoms
0.981279 -3.3909 -3.3909 -1.91898 0.0525221 -3.3909 1.47191 293600
Loop time of 5678.31 on 96 procs for 3000000 steps with 293600 atoms

write_data	data.lj
System init for write_data ...
