LAMMPS (24 Dec 2020)
#Read the equilibrated lj fluid and add nanocubes

units           lj
atom_style      full
atom_modify     map array first cubes
dimension       3
boundary        p p f
pair_style      lj/cut/opt 2.5

variable        sigma           equal 1.0
variable        epsilon         equal 1.0
read_restart	restart.dat.3000000
Reading restart file ...
  restart file = 29 Oct 2020, LAMMPS = 24 Dec 2020
  restoring atom style full from restart
  orthogonal box = (0.0000000 0.0000000 0.0000000) to (100.00000 100.00000 200.00000)
  restoring pair style lj/cut/opt from restart
  1010000 atoms
Finding 1-2 1-3 1-4 neighbors ...
     0 = max # of 1-2 neighbors
     0 = max # of 1-3 neighbors
     0 = max # of 1-4 neighbors
     1 = max # of special neighbors
  read_restart CPU = 2.540 seconds

group		solvent type 1
1010000 atoms in group solvent
read_data	data490_500.cubes group cubes add append
Reading data file ...
  orthogonal box = (0.0000000 0.0000000 0.0000000) to (100.00000 100.00000 200.00000)
  reading atoms ...
  560070 atoms
  reading velocities ...
  560070 velocities
Finding 1-2 1-3 1-4 neighbors ...
     0 = max # of 1-2 neighbors
     0 = max # of 1-3 neighbors
     0 = max # of 1-4 neighbors
     1 = max # of special neighbors

neighbor      0.4 bin
neigh_modify  exclude molecule/intra cubes

pair_modify   shift yes

pair_coeff    1 1 1.0 1.0 #solvent
pair_coeff    2 2 0.6 1.0 0.7147 #np
pair_coeff    3 3 0.0 0.0 0.0 #dummy
pair_coeff    2 3 0.0 0.0 0.0 #np dummy
pair_coeff    1 2 0.8 1.0 #np solvent
pair_coeff    1 3 0.0 0.0 0.0 #dummy solvent

# delete solvent where the cubes are
delete_atoms  overlap 1.0 solvent cubes
System init for delete_atoms ...
  update every 1 steps, delay 10 steps, check yes
Deleted 314345 atoms, new total = 1255725

comm_modify   mode multi cutoff/multi 1 2.5 cutoff/multi 2 2.5 cutoff/multi 3 6.95

reset_timestep 	0

balance 	1.05 shift z 10 1.05
Balancing ...
  update every 1 steps, delay 10 steps, check yes
 rebalancing time: 0.011 seconds
  iteration count = 4
  initial/final maximal load/proc = 8337.0000 8071.0000
  initial/final imbalance factor  = 1.5934062 1.5425670
  x cuts: 0.0000000 0.25000000 0.50000000 0.75000000 1.0000000
  y cuts: 0.0000000 0.20000000 0.40000000 0.60000000 0.80000000 1.0000000
  z cuts: 0.0000000 0.057291667 0.11979167 0.17187500 0.23958333 0.28125000 0.34375000 0.41145833 0.46354167 0.51562500 0.56250000 0.64583333 1.0000000

####################### WALLS ###########################

variable       epsilonWall equal 2*1

variable       repulsive   equal   0.7147*1

variable       full	   equal   3*1

region         lowWall block EDGE EDGE EDGE EDGE EDGE 2

fix            topWall all wall/lj93 zhi EDGE 	       2 1 0.7147 units box

fix            lowSol solvent wall/lj93 zlo EDGE                2 1 3 units box

fix 	       lowCub cubes wall/lj93 zlo EDGE                2 1 0.7147 units box

###################### COMPUTES ##########################

compute        bin1 solvent chunk/atom bin/1d z upper 1.0

######################  FIXES ############################

fix             peclet solvent ave/chunk 1000 1 1000 bin1 density/number norm                  none ave one file density.profile

fix              temp solvent ave/chunk 1000 1 1000 bin1 temp norm                  none ave one file temp.profile

  490 rigid bodies with 560070 atoms
  6.9283411 = max distance from body owner to body atom

fix             2 solvent nve

## Thermostat

region          regthermo block EDGE EDGE EDGE EDGE 0 10

group           thermo dynamic solvent region regthermo every 1000
dynamic group thermo defined

fix             3 thermo langevin 0.8 1.0 10 156453

#### Load balancing

fix             bal all balance 1000 1.05 shift z 10 1.05

############### Diagnostics and computes ###################

compute        com cubes          rigid/local   1 mol x y z
compute        quat cubes         rigid/local   1 mol quatw quati quatj quatk
compute 	cc2 cubes chunk/atom molecule

compute 	msd cubes msd/chunk cc2

thermo          1000
thermo_style    custom step temp epair evdwl etotal press pe ke atoms

dump            1 all custom 100000 dump.lammpstrj id mol type x y z
dump            2 all image 10000 image.*.png type type

dump_modify     2 pad 8

dump		image cubes image 10000 image_cubes.*.png type type

dump_modify	image pad 8

dump            3 all movie 5000 movie.avi type type
dump           com cubes local 10000 dump.*.xyz c_com[*]
dump           quat cubes      local 10000 dump.*.quat c_quat[*]

restart         500000 restart.dat
timestep        0.005
timer           full
New timer settings: style=full  mode=nosync  timeout=off

run            3000000
Step Temp E_pair E_vdwl TotEng Press PotEng KinEng Atoms
0   0.84046065    -2.309913    -2.309913   -1.6105241  -0.13426518    -2.309913   0.69938895  1255725
Averages over the last 1501 of 3001 rows, steps 1500000 to 3000000:
Temp E_pair E_vdwl TotEng Press PotEng KinEng Atoms
0.90133 -2.35214 -2.35214 -1.6021 0.0294674 -2.35214 0.750042 1.25572e+06
Loop time of 14783.1 on 240 procs for 3000000 steps with 1255725 atoms
