LAMMPS (29 Oct 2020)
# Simple rigid body system
# needed variables:

#variable	startTemp equal 0.5
#variable 	temp 	  equal 0.8

units		lj
atom_style	full
dimension 	3
boundary	p p f
pair_style	lj/cut/opt 2.5

variable 	sigma		equal 1.0
variable 	epsilon 	equal 1.0

region		box block 0 100 0 100 0 200
create_box 	3 box
Created orthogonal box = (0.0000000 0.0000000 0.0000000) to (100.00000 100.00000 200.00000)
lattice 	sc 1.0
Lattice spacing in x,y,z = 1.0000000 1.0000000 1.0000000

region		create block EDGE EDGE EDGE EDGE 2 102
create_atoms 	1 region create
Created 1010000 atoms

mass		1 1.0
mass		2 1.0
mass		3 1.0

group		solvent type 1
1010000 atoms in group solvent

velocity 	solvent create 0.8 563435 loop geom

neighbor 	0.4 bin

pair_coeff	1 1 1.0 1.0
pair_coeff	2 2 0.0 0.0
pair_coeff	3 3 0.0 0.0
pair_coeff	2 3 0.0 0.0
pair_coeff	1 2*3 0.0 0.0

pair_modify 	shift yes

balance 	1.05 shift z 10 1.05
Balancing ...
  update every 1 steps, delay 10 steps, check yes
 rebalancing time: 0.483 seconds
  iteration count = 5
  initial/final maximal load/proc = 8925.0000 5775.0000
  initial/final imbalance factor  = 2.1207921 1.3722772
  x cuts: 0.0000000 0.25 0.5 0.75 1.0000000
  y cuts: 0.0000000 0.2 0.4 0.6 0.8 1.0000000
  z cuts: 0.0000000 0.049479167 0.091145833 0.13020833 0.171875 0.22135417 0.2578125 0.30208333 0.34375 0.37239583 0.4296875 0.46354167 1.0000000

####################### WALLS ###########################

variable       epsilonWall equal 2*1

variable       cutoffTop   equal   0.7147*1

variable       cutoffLow   equal   3*1

fix            topWall all wall/lj93 zhi EDGE                2 1 0.7147 units box

fix            lowWall all wall/lj93 zlo EDGE                2 1 3 units box

###################### COMPUTES ##########################

compute        bin1 solvent chunk/atom bin/1d z upper 1.0

######################	FIXES ############################

fix 		peclet solvent ave/chunk 1000 1 1000 bin1 density/number norm 		 none ave one file density.profile

fix 		 temp solvent ave/chunk 1000 1 1000 bin1 temp norm 		 none ave one file temp.profile

fix 		2 solvent nve

## Thermostat

region		regthermo block EDGE EDGE EDGE EDGE 0 20

group 		thermo dynamic solvent region regthermo every 1000
dynamic group thermo defined

fix 		3 thermo langevin 0.8 .7 10 156453

#### Load balancing

fix 		bal all balance 1000 1.05 shift z 10 1.05

############### Diagnostics and computes ###################
#compute 	com cube	  rigid/local	1 mol x y z
#compute 	quat cube	  rigid/local	1 mol quatw quati quatj quatk

thermo 		1000
thermo_style 	custom step temp epair evdwl etotal press pe ke atoms

dump		1 all custom 100000 dump.lammpstrj id mol type x y z
dump 		2 all image 10000 image.*.png type type
dump 		3 all movie 1000 movie.avi type type

#dump 		com cube local 1000 dump.*.xyz c_com[*]
#dump		quat cube      local 1000 dump.*.quat c_quat[*]

restart 	2000000 restart.dat
timestep 	0.0025
timer 		full
New timer settings: style=full  mode=nosync  timeout=off

run		6000000
Step Temp E_pair E_vdwl TotEng Press PotEng KinEng Atoms
0          0.8   -3.3050748   -3.3050748    -2.105076    8.8982699   -3.3050748    1.1999988  1010000
Averages over the last 3001 of 6001 rows, steps 3000000 to 6000000:
Temp E_pair E_vdwl TotEng Press PotEng KinEng Atoms
0.756183 -4.58513 -4.58513 -3.45085 0.0127998 -4.58513 1.13427 1.01e+06
Loop time of 29314.8 on 240 procs for 6000000 steps with 1010000 atoms

write_data	data.lj
System init for write_data ...
