LAMMPS (24 Dec 2020)
units           lj
atom_style      full
atom_modify     map array first cubes
dimension       3
boundary        p p f

variable        sigma           equal 1.0
variable        epsilon         equal 1.0

region 		box block 0 120 0 120 0 160

read_data       data.rigid
Reading data file ...
  orthogonal box = (0.0000000 0.0000000 0.0000000) to (17.140000 17.140000 16.000000)
  reading atoms ...
  1143 atoms
Finding 1-2 1-3 1-4 neighbors ...
     0 = max # of 1-2 neighbors
     0 = max # of 1-3 neighbors
     0 = max # of 1-4 neighbors
     1 = max # of special neighbors

replicate	7 7 10	# 490 cubes
Replicating atoms ...
  orthogonal box = (0.0000000 0.0000000 0.0000000) to (119.98000 119.98000 160.00000)
  560070 atoms
Finding 1-2 1-3 1-4 neighbors ...
     0 = max # of 1-2 neighbors
     0 = max # of 1-3 neighbors
     0 = max # of 1-4 neighbors
     1 = max # of special neighbors
  replicate CPU = 0.059 seconds

group           cubes type 2 3
560070 atoms in group cubes

# Jetzt die eigentliche verteilung

pair_style	lj/cut/opt 1.12
pair_modify	shift yes

pair_coeff	1 1 0.0 0.0

pair_coeff	2 2 1.0 1.0

pair_coeff	1 2 0.0 0.0

pair_coeff	1 3 0.0 0.0

pair_coeff	2 3 0.0 0.0

pair_coeff	3 3 0.0 0.0

comm_modify	cutoff 6.93

fix 		1 cubes rigid/small molecule
  490 rigid bodies with 560070 atoms
  6.9282032 = max distance from body owner to body atom

####################### WALLS ###########################

variable       epsilonWall equal 2*1

variable       cutoffTop   equal   0.7147*1

variable       cutoffLow   equal   3*1

fix            topWall all wall/lj93 zhi EDGE                2 1 0.7147 units box

fix            lowWall all wall/lj93 zlo EDGE                2 1 0.7147 units box

velocity	all create 10 12734 loop geom

############### Diagnostics and computes ###################
compute        com cubes          rigid/local   1 mol x y z
compute        quat cubes         rigid/local   1 mol quatw quati quatj quatk

thermo          1000
thermo_style    custom step temp epair evdwl etotal press pe ke vol

#dump            1 all custom 100000 dump.lammpstrj id mol type x y z
dump            2 all image 10000 image.*.png type type

dump_modify     2 pad 8

dump            image cubes image 10000 image_cubes.*.png type type

dump_modify     image pad 8

dump            3 all movie 5000 movie.avi type type
dump           com cubes local 1000 dump.*.xyz c_com[*]
dump           quat cubes      local 1000 dump.*.quat c_quat[*]

restart         250000 restart.dat
timestep        0.005
timer           full
New timer settings: style=full  mode=nosync  timeout=off

run 		500000
  update every 1 steps, delay 10 steps, check yes
Step Temp E_pair E_vdwl TotEng Press PotEng KinEng Volume
0    9.9302628   0.65080415   0.65080415   0.67684123  -0.10412993   0.65080415  0.026037086    2303232.1
Averages over the last 251 of 501 rows, steps 250000 to 500000:
Temp E_pair E_vdwl TotEng Press PotEng KinEng Volume
9.82716 0.651061 0.651061 0.676828 0.00727477 0.651061 0.0257668 2.30323e+06
Loop time of 1794.08 on 48 procs for 500000 steps with 560070 atoms

write_data      data.cubes
System init for write_data ...
