LAMMPS (24 Dec 2020)
#Read the equilibrated lj fluid and add nanocubes

units           lj
atom_style      full
#atom_modify     map array first cubes
dimension       3
boundary        p p f
pair_style      lj/smooth/linear 2.0

variable        sigma           equal 1.0
variable        epsilon         equal 1.0
read_restart	restart.dat.5000000
Reading restart file ...
  restart file = 24 Dec 2020, LAMMPS = 24 Dec 2020
  restoring atom style full from restart
  orthogonal box = (0.0000000 0.0000000 0.0000000) to (80.000000 80.000000 160.00000)
  restoring pair style lj/smooth/linear from restart
  426349 atoms
Finding 1-2 1-3 1-4 neighbors ...
     0 = max # of 1-2 neighbors
     0 = max # of 1-3 neighbors
     0 = max # of 1-4 neighbors
     1 = max # of special neighbors
  read_restart CPU = 3.468 seconds

group		solvent type 1
353197 atoms in group solvent
group 		hull  type 2
28544 atoms in group hull
group 		dummy type 3
44608 atoms in group dummy

neighbor      0.4 bin
neigh_modify  exclude molecule/intra cubes

pair_modify   shift yes

pair_coeff    1 1 1.0 1.0 #solvent
pair_coeff    2 2 1.0 1.0 1.12 #np
pair_coeff    3 3 0.0 0.0 0.0 #dummy
pair_coeff    2 3 0.0 0.0 0.0 #np dummy
pair_coeff    1 2 1.0 1.0 4.0
pair_coeff    1 3 0.0 0.0 0.0 #dummy solvent

comm_modify   mode multi cutoff/multi 1 2.0 cutoff/multi 2 2.0 cutoff/multi 3 6.95

reset_timestep 	0

balance 	1.05 shift z 10 1.05
Balancing ...
Unused restart file global fix info:
  fix style: STORE, fix ID: msd_COMPUTE_STORE
Unused restart file peratom fix info:
  fix style: STORE, fix ID: bin1_COMPUTE_STORE
  update every 1 steps, delay 10 steps, check yes
 rebalancing time: 0.073 seconds
  iteration count = 5
  initial/final maximal load/proc = 2727.0000 2031.0000
  initial/final imbalance factor  = 2.1491126 1.6006042
  x cuts: 0.0000000 0.16666667 0.33333333 0.50000000 0.66666667 0.83333333 1.0000000
  y cuts: 0.0000000 0.25000000 0.50000000 0.75000000 1.0000000
  z cuts: 0.0000000 0.046875000 0.095982143 0.13839286 0.18303571 0.21875000 0.26116071 0.30580357 0.34821429 0.38392857 0.43750000 0.46205357 0.51116071 0.60491071 1.0000000

####################### WALLS ###########################

variable       epsilonWall equal 2*1
variable       repulsive   equal   0.7147*1
variable       full	   equal   3*1
#region         lowWall block EDGE EDGE EDGE EDGE EDGE 2

fix            topWall all wall/lj93 zhi EDGE 	       2 1 0.7147 units box
fix            lowSol solvent wall/lj93 zlo EDGE                2 1 3 units box
fix 	       lowCub cubes wall/lj93 zlo EDGE                2 1 0.7147 units box

###################### COMPUTES ##########################

compute        bin1 solvent chunk/atom bin/1d z lower 1.0 units box

######################  FIXES ############################

fix             peclet solvent ave/chunk 100 1 10000 bin1 density/number norm                  none ave one file density.profile

fix              temp solvent ave/chunk 100 1 10000 bin1 temp norm                  none ave one file temp.profile

fix             1 cubes rigid/nve/small molecule
  64 rigid bodies with 73152 atoms
  6.9282032 = max distance from body owner to body atom

fix             2 solvent nve

## Thermostat
region          regthermo block EDGE EDGE EDGE EDGE 0 15
group           thermo dynamic solvent region regthermo every 1000
dynamic group thermo defined
fix             3 thermo langevin 0.6 0.6 10 156453

## Evaporation
region		regevap block EDGE EDGE EDGE EDGE 140 EDGE
fix		4 solvent evaporate 85 1 regevap 156415

#### Load balancing

fix             bal all balance 1000 1.05 shift z 10 1.05

############### Diagnostics and computes ###################

compute          cluster all cluster/atom 1.5
compute          cc1 all chunk/atom c_cluster compress yes
compute          size all property/chunk cc1 count
compute          myChunk all temp/chunk cc1 temp
fix              tempe all ave/time 5000 1 5000 c_myChunk file tmp.out mode scalar
compute          comChunk all com/chunk cc1
fix              com all ave/time 10000 1 10000 c_size c_comChunk[*] file com.xyz mode vector

compute        	com cubes          rigid/local   1 mol x y z
compute        	quat cubes         rigid/local   1 mol quatw quati quatj quatk

compute 	cc2 cubes 	   chunk/atom 	 molecule
compute 	msd cubes 	   msd/chunk 	 cc2

fix 		msd all ave/time  1 1 10000 c_msd[*] file dump.msd ave one mode vector

dump            1 all custom 100000 dump.lammpstrj id mol type x y z c_cluster c_cc1
dump		hulltrj hull custom 100000 hull.lammpstrj id mol type x y z
dump		cubestrj cubes custom 100000 cubes.lammpstrj id mol type x y z

dump            com cubes local 100000 dump.*.xyz c_com[*]
dump	        xyz cubes xyz 100000 cubes.*.xyz
dump            quat cubes      local 100000 dump.*.quat c_quat[*]

dump            2 all image 10000 image.*.png type type zoom 1.5 size 1280 720
dump_modify     2 pad 8
dump		image cubes image 10000 image_cubes.*.png type type zoom 1.5 size 1280 720
dump_modify	image pad 8
dump            3 all movie 5000 movie.avi type type zoom 1.5 size 1280 720
dump		4 cubes movie 5000 movie_cubes.avi type type zoom 1.5 size 1280 720

thermo          10000
thermo_style    custom step temp epair evdwl etotal press pe ke atoms

restart         1000000 restart.dat
timestep        0.005
timer           full
New timer settings: style=full  mode=nosync  timeout=off

run 		30000000
  update every 1 steps, delay 10 steps, check yes
Step Temp E_pair E_vdwl TotEng Press PotEng KinEng Atoms
0    0.6022542   -2.1842339   -2.1842339   -1.4355836  0.059961447   -2.1842339   0.74865027   426349
Averages over the last 1501 of 3001 rows, steps 15000000 to 30000000:
Temp E_pair E_vdwl TotEng Press PotEng KinEng Atoms
0.152489 -1.56627 -1.56627 -1.11501 0.0142537 -1.56627 0.451261 162040
Loop time of 65115.4 on 336 procs for 30000000 steps with 82925 atoms
