LAMMPS (3 Mar 2020)
# Simple rigid body system

units		lj
atom_style	full
dimension 	3
boundary	p p f
pair_style	lj/cut 4.4

variable 	sigma		equal 1.0
variable 	epsilon 	equal 1.0

region		box block 0 40 0 40 0 40
create_box 	3 box
Created orthogonal box = (0 0 0) to (40 40 40)

create_atoms 	3 random 15000 15345 NULL
Created 15000 atoms

mass		3 1.0

region		cubespace block 10 30 10 30 10 30

delete_atoms 	region cubespace
Deleted 1941 atoms, new total = 13059

read_data	data.rigid add append
Reading data file ...
  orthogonal box = (0 0 0) to (40 40 40)
  reading atoms ...
  1143 atoms
Finding 1-2 1-3 1-4 neighbors ...

group 		cube type 1 2
1143 atoms in group cube

group		solvent type 3
13059 atoms in group solvent

replicate 	2 2 2
Replicating atoms ...
  orthogonal box = (0 0 0) to (80 80 80)
  113616 atoms
Finding 1-2 1-3 1-4 neighbors ...
  replicate CPU = 0.0288718 secs

read_data	data.vac add append
Reading data file ...
  orthogonal box = (0 0 0) to (80 80 160)
Finding 1-2 1-3 1-4 neighbors ...

neighbor 	0.4 bin

neigh_modify 	exclude molecule/intra cube

pair_modify 	shift yes
pair_coeff	1 1 0.6 1.0 2.2 #np
pair_coeff 	2 2 0.0 0.0 0.0 #dummy
pair_coeff	1 2 0.0 0.0 0.0 #np dummy
pair_coeff	3 3 1.0 1.0 4.4 #solvent
pair_coeff	1 3 0.8 1.0 4.4 #np solvent
pair_coeff 	2 3 0.0 0.0 0.0 #dummy solvent

reset_ids
  update every 1 steps, delay 10 steps, check yes
Finding 1-2 1-3 1-4 neighbors ...
velocity 	solvent create 1.0 565153

comm_modify	cutoff 8.7

#delete_atoms 	overlap 4.4 solvent cube

delete_atoms 	overlap 1 solvent solvent compress yes
System init for delete_atoms ...
  update every 1 steps, delay 10 steps, check yes
Deleted 37746 atoms, new total = 75870

balance 	1.05 shift z 10 1.05
Balancing ...
  update every 1 steps, delay 10 steps, check yes
  rebalancing time: 0.0246304 seconds
  iteration count = 6
  initial/final max load/proc = 38027 20095
  initial/final imbalance factor = 2.00485 1.05944
  x cuts: 0 1
  y cuts: 0 1
  z cuts: 0 0.128906 0.253906 0.382812 1

####################### WALLS ###########################

region	       low block  EDGE EDGE EDGE EDGE 0 1
region 	       top block  EDGE EDGE EDGE EDGE 159 160

delete_atoms   region low compress yes
Deleted 1038 atoms, new total = 74832

variable       epsilonWall equal 2*1

variable       cutoffTop   equal   0.7147*1

variable       cutoffLow   equal   3*1

fix            topWall all wall/lj93 zhi EDGE                2 1 0.7147 units box

fix            lowWall all wall/lj93 zlo EDGE                2 1 3 units box

######################	FIXES ############################

fix		1 cube rigid/nvt/small molecule temp 1.0 1.0 0.25
8 rigid bodies with 9144 atoms
  6.9282 = max distance from body owner to body atom

fix 		2 solvent nvt temp 1.0 1.0 0.25# iso 0 0.0 2.5

fix 		bal all balance 1000 1.05 shift z 10 1.05

compute 	com cube	  rigid/local	1 mol x y z
compute 	quat cube	  rigid/local	1 mol quatw quati quatj quatk

thermo 		100
thermo_style 	custom step temp epair evdwl etotal press pe ke vol

dump		1 all custom 100000 dump.lammpstrj id mol type x y z
dump 		2 all image 100000 image.*.png type type
dump 		3 all movie 10000 movie.avi type type
#dump 		com cube local 1000 dump.*.xyz c_com[*]
#dump		quat cube      local 1000 dump.*.quat c_quat[*]

restart 	100000 restart.dat
timestep 	0.0025
timer 		full
New timer settings: style=full  mode=nosync  timeout=off

run		1000000
Setting up Verlet run ...
  Unit style    : lj
  Current step  : 0
  Time step     : 0.0025
Step Temp E_pair E_vdwl TotEng Press PotEng KinEng Volume
0    1.0000731  -0.70356805  -0.70356805   0.61353838  0.015695577  -0.70356805    1.3171064      1024000
Averages over the last 5001 of 10001 rows, steps 500000 to 1000000:
Temp E_pair E_vdwl TotEng Press PotEng KinEng Volume
1.00001 -1.10775 -1.10775 0.209271 0.0371124 -1.10775 1.31703 1.024e+06
Loop time of 21947.4 on 4 procs for 1000000 steps with 74832 atoms
