LAMMPS (3 Mar 2020)
# Simple rigid body system

units		lj
atom_style	full
dimension 	3
boundary	p p f
pair_style	lj/cut/opt 4.4

variable 	sigma		equal 1.0
variable 	epsilon 	equal 1.0

region		box block 0 40 0 40 0 40
create_box 	3 box
Created orthogonal box = (0 0 0) to (40 40 40)
lattice 	sc 1.0
Lattice spacing in x,y,z = 1 1 1

create_atoms 	3 region box
Created 64000 atoms

mass		1 1.0
mass		2 1.0
mass		3 1.0
group		solvent type 3
64000 atoms in group solvent
velocity 	solvent create 1.0 563435 loop geom

replicate 	2 2 2
Replicating atoms ...
  orthogonal box = (0 0 0) to (80 80 80)
  512000 atoms
Finding 1-2 1-3 1-4 neighbors ...
  replicate CPU = 5.76011 secs
read_data	data.vac add append
Reading data file ...
  orthogonal box = (0 0 0) to (80 80 160)
Finding 1-2 1-3 1-4 neighbors ...

neighbor 	0.4 bin
pair_coeff	1 1 0.0 0.0
pair_coeff	2 2 0.0 0.0
pair_coeff	1 2 0.0 0.0
pair_coeff	1*2 3 0.0 0.0
pair_coeff	3 3 1.0 1.0
pair_modify 	shift yes

balance 	1.05 shift z 10 1.05
Balancing ...
  update every 1 steps, delay 10 steps, check yes
  rebalancing time: 0.0129392 seconds
  iteration count = 5
  initial/final max load/proc = 16000 9600
  initial/final imbalance factor = 2 1.2
  x cuts: 0 0.5 1
  y cuts: 0 0.25 0.5 0.75 1
  z cuts: 0 0.0625 0.128906 0.1875 0.257812 0.308594 0.386719 0.4375 1

####################### WALLS ###########################

region	       low block  EDGE EDGE EDGE EDGE 0 1

region 	       top block  EDGE EDGE EDGE EDGE 159 160

delete_atoms   region low
Deleted 12800 atoms, new total = 499200

variable       epsilonWall equal 2*1

variable       cutoffTop   equal   0.7147*1

variable       cutoffLow   equal   3*1

fix            topWall all wall/lj93 zhi EDGE                2 1 0.7147 units box

fix            lowWall all wall/lj93 zlo EDGE                2 1 3 units box

######################	FIXES ############################

#fix		1 cube rigid/nvt/small molecule temp 1.0 1.0 0.25

fix 		2 solvent nve

## Thermostat
region		regthermo block EDGE EDGE EDGE EDGE 0 20

group 		thermo dynamic solvent region regthermo every 1000
dynamic group thermo defined

fix 		3 thermo langevin 1.0 1.0 0.1 156453

#### Load balancing

fix 		bal all balance 1000 1.05 shift z 10 1.05

############### Diagnostics and computes ###################
#compute 	com cube	  rigid/local	1 mol x y z
#compute 	quat cube	  rigid/local	1 mol quatw quati quatj quatk

thermo 		1000
thermo_style 	custom step temp epair evdwl etotal press pe ke vol

dump		1 all custom 100000 dump.lammpstrj id mol type x y z
dump 		2 all image 10000 image.*.png type type
#dump 		3 all movie 100 movie.avi type type
#dump 		com cube local 1000 dump.*.xyz c_com[*]
#dump		quat cube      local 1000 dump.*.quat c_quat[*]

restart 	100000 restart.dat
timestep 	0.0025
timer 		full
New timer settings: style=full  mode=nosync  timeout=off

run		1000000
Setting up Verlet run ...
  Unit style    : lj
  Current step  : 0
  Time step     : 0.0025
Step Temp E_pair E_vdwl TotEng Press PotEng KinEng Volume
0    0.9999782   -4.1582862   -4.1582862   -2.6583219    8.3781089   -4.1582862    1.4999643      1024000
Averages over the last 501 of 1001 rows, steps 500000 to 1000000:
Temp E_pair E_vdwl TotEng Press PotEng KinEng Volume
0.995305 -4.59921 -4.59921 -3.10625 0.0692722 -4.59921 1.49295 1.024e+06
Loop time of 28692.9 on 64 procs for 1000000 steps with 499200 atoms
