LAMMPS (24 Dec 2020)
#Read the equilibrated lj fluid and add nanocubes

units           lj
atom_style      full
atom_modify     map array first cubes
dimension       3
boundary        p p f
pair_style      lj/cut/opt 2.5

variable        sigma           equal 1.0
variable        epsilon         equal 1.0
read_restart	restart.dat.10000000
Reading restart file ...
  restart file = 24 Dec 2020, LAMMPS = 24 Dec 2020
  restoring atom style full from restart
  orthogonal box = (0.0000000 0.0000000 0.0000000) to (120.00000 120.00000 240.00000)
  restoring pair style lj/cut/opt from restart
  1553347 atoms
Finding 1-2 1-3 1-4 neighbors ...
     0 = max # of 1-2 neighbors
     0 = max # of 1-3 neighbors
     0 = max # of 1-4 neighbors
     1 = max # of special neighbors
  read_restart CPU = 12.242 seconds

group		solvent type 1
1553347 atoms in group solvent

read_data	data3_450.cubes group cubes add append
Reading data file ...
  orthogonal box = (0.0000000 0.0000000 0.0000000) to (120.00000 120.00000 240.00000)
  reading atoms ...
  560070 atoms
  reading velocities ...
  560070 velocities
Finding 1-2 1-3 1-4 neighbors ...
     0 = max # of 1-2 neighbors
     0 = max # of 1-3 neighbors
     0 = max # of 1-4 neighbors
     1 = max # of special neighbors

group 		hull  type 2
218540 atoms in group hull
group 		dummy type 3
341530 atoms in group dummy

neighbor      0.4 bin
neigh_modify  exclude molecule/intra cubes

pair_modify   shift yes

pair_coeff    1 1 1.0 1.0 #solvent
pair_coeff    2 2 1.0 1.0 1.12 #np
pair_coeff    3 3 0.0 0.0 0.0 #dummy
pair_coeff    2 3 0.0 0.0 0.0 #np dummy
pair_coeff    1 2 .575 1.0
pair_coeff    1 3 0.0 0.0 2.5 #dummy solvent

# delete solvent where the cubes are
delete_atoms  overlap 1.0 solvent cubes
System init for delete_atoms ...
Unused restart file peratom fix info:
  fix style: STORE, fix ID: bin1_COMPUTE_STORE
  update every 1 steps, delay 10 steps, check yes
Deleted 398981 atoms, new total = 1714436

pair_coeff    1 1 1.0 1.0 #solvent
pair_coeff    2 2 1.0 1.0 1.12 #np
pair_coeff    3 3 0.0 0.0 0.0 #dummy
pair_coeff    2 3 0.0 0.0 0.0 #np dummy
pair_coeff    1 2 .575 1.0
pair_coeff    1 3 0.0 0.0 0.0 #dummy solvent

comm_modify   mode multi cutoff/multi 1 2.5 cutoff/multi 2 2.5 cutoff/multi 3 6.96

reset_timestep 	0

balance 	1.05 shift z 10 1.05
Balancing ...
  update every 1 steps, delay 10 steps, check yes
 rebalancing time: 0.046 seconds
  iteration count = 4
  initial/final maximal load/proc = 2390.0000 2353.0000
  initial/final imbalance factor  = 1.4609586 1.4383412
  x cuts: 0.0000000 0.50000000 1.0000000
  y cuts: 0.0000000 0.25000000 0.50000000 0.75000000 1.0000000
  z cuts: 0.0000000 0.0090648855 0.015744275 0.021469466 0.027194656 0.032919847 0.038645038 0.044847328 0.050572519 0.056297710 0.062022901 0.068225191 0.072996183 0.080629771 0.085400763 0.093034351 0.097328244 0.10496183 0.10877863 0.11641221 0.12166031 0.12929389 0.13215649 0.13979008 0.14599237 0.14790076 0.15553435 0.16316794 0.17020591 0.17187424 0.17891221 0.18654580 0.19358377 0.19525211 0.20229008 0.20992366 0.21696163 0.21862997 0.22566794 0.23330153 0.24093511 0.24797309 0.24964142 0.25667939 0.26431298 0.27135095 0.27301928 0.28005725 0.28769084 0.29472881 0.29639714 0.30343511 0.31106870 0.31810667 0.31977501 0.32681298 0.33444656 0.34208015 0.34911812 0.35078646 0.35782443 0.36545802 0.37249599 0.37416432 0.38120229 0.38883588 0.39587385 0.39754218 0.40458015 0.41221374 0.41925171 0.42092004 0.42795802 0.43559160 0.44322519 0.45026316 0.45193149 0.45896947 0.46660305 0.47364102 0.47530936 0.48234733 0.48998092 0.49761450 0.50465247 0.50632081 0.51335878 0.52099237 0.52803034 0.52969867 0.53673664 0.54437023 0.55140820 0.55307653 0.56011450 0.56774809 0.57478606 0.57645440 0.58349237 0.59112595 0.59875954 0.60579751 0.60746585 0.61450382 0.62213740 0.62917538 0.63084371 0.63788168 0.64551527 0.65255324 0.65422157 0.66125954 0.66889313 0.67652672 0.68416031 0.69179389 0.69883186 0.70050020 0.70753817 0.71517176 0.72280534 0.73043893 0.73807252 0.74570611 0.75333969 0.76812977 0.80438931 0.84064885 0.87690840 0.91316794 0.95658397 1.0000000

####################### WALLS ###########################

variable       epsilonWall equal 2*1
variable       repulsive   equal   0.7147*1
variable       full	   equal   3*1
region         lowWall block EDGE EDGE EDGE EDGE EDGE 2

fix            topWall all wall/lj93 zhi EDGE 	       2 1 0.7147 units box
fix            lowSol solvent wall/lj93 zlo EDGE                2 1 3 units box
fix 	       lowCub cubes wall/lj93 zlo EDGE                2 1 0.7147 units box

###################### COMPUTES ##########################

compute        bin1 solvent chunk/atom bin/1d z lower 1.0 units box
compute        bin3 solvent chunk/atom bin/3d x lower 5.0 y lower 5.0 z lower 5.0 units box

compute 	pe solvent 	   pe/atom
compute 	pe2 all 	   pe/atom

######################  FIXES ############################

fix             peclet solvent ave/chunk 10 10 100000 bin1 density/number norm                  none ave one file density.profile

fix              temp solvent ave/chunk 10 10 100000 bin1 temp norm                  none ave one file temp.profile

fix 		 dens solvent ave/chunk 10 10 500000 bin3 density/number norm 		 none ave one file dens3.profile

fix 		pe solvent ave/chunk 1 1 500000 bin3 c_pe norm none ave one file pe3.profile
fix             1 cubes rigid/nve/small molecule
  490 rigid bodies with 560070 atoms
  6.9542847 = max distance from body owner to body atom

## Thermostat
region          regthermo block EDGE EDGE EDGE EDGE 0 15
group           thermo dynamic solvent region regthermo every 1000
dynamic group thermo defined
fix             3 thermo langevin 1.0 1.0 10 156453

#### Load balancing

fix             bal all balance 1000 1.05 shift z 10 1.05

############### Diagnostics and computes ###################

compute        	com cubes          rigid/local   1 mol x y z
compute        	quat cubes         rigid/local   1 mol quatw quati quatj quatk

compute 	cc2 cubes 	   chunk/atom 	 molecule
compute 	msd cubes 	   msd/chunk 	 cc2

fix 		msd all ave/time  1 1 10000 c_msd[*] file dump.msd ave one mode vector

dump            1 all custom 500000 dump.lammpstrj id mol type x y z vx vy vz c_pe2
dump		sol  solvent custom 500000 dump.soltrj id x y z vx vy vz c_pe
dump		cubetrj cubes custom 500000 cubes.lammpstrj id mol type x y z vx vy vz
#dump            com cubes local 100000 dump.*.xyz c_com[*]
#dump	        xyz hull xyz 100000 cubes.xyz
#dump            quat cubes      local 100000 dump.*.quat c_quat[*]
dump		order cubes 	local 500000 dump.*.order c_com[*] c_quat[*]
#dump		mol cubes molfile 10000 mol.xyz xyz

dump            2 all image 500000 image.*.png type type zoom 1.5 size 1280 720
dump_modify     2 pad 8
dump		image cubes image 500000 image_cubes.*.png type type zoom 1.5 size 1280 720
dump_modify	image pad 8
dump            3 all movie 10000 movie.avi type type zoom 1.5 size 1280 720
dump		4 cubes movie 10000 movie_cubes.avi type type size 1280 720

thermo          1000
thermo_style    custom step temp epair evdwl etotal press pe ke atoms

restart         1000000 restart.dat
timestep        0.005
timer           full
New timer settings: style=full  mode=nosync  timeout=off

run 		10000000
Step Temp E_pair E_vdwl TotEng Press PotEng KinEng Atoms
0    1.0089585   -2.1272669   -2.1272669   -1.1073731 -0.091230676   -2.1272669    1.0198938  1714436
Averages over the last 5001 of 10001 rows, steps 5000000 to 10000000:
Temp E_pair E_vdwl TotEng Press PotEng KinEng Atoms
1.00978 -2.08674 -2.08674 -1.06602 0.0700653 -2.08674 1.02073 1.71444e+06
Loop time of 27589.1 on 1048 procs for 10000000 steps with 1714436 atoms
